new load.3000465115M1 bus1=R1199503.1.2.0,Phases=2,kv=0.22,kw=0.93930574139839,pf=0.92,Vminpu=0.92,Vmaxpu=1.5,model=2,daily=arqCurvaNormCOM2,status=variable
new load.3000465115M2 bus1=R1199503.1.2.0,Phases=2,kv=0.22,kw=0.93930574139839,pf=0.92,Vminpu=0.92,Vmaxpu=1.5,model=3,daily=arqCurvaNormCOM2,status=variable

new load.3000465117M1 bus1=R1199496.1.2.0,Phases=2,kv=0.22,kw=0.0262761633271623,pf=0.92,Vminpu=0.92,Vmaxpu=1.5,model=2,daily=arqCurvaNormRES1,status=variable
new load.3000465117M2 bus1=R1199496.1.2.0,Phases=2,kv=0.22,kw=0.0262761633271623,pf=0.92,Vminpu=0.92,Vmaxpu=1.5,model=3,daily=arqCurvaNormRES1,status=variable

new load.3000465118M1 bus1=R1199489.1.2.0,Phases=2,kv=0.22,kw=0.367554420547195,pf=0.92,Vminpu=0.92,Vmaxpu=1.5,model=2,daily=arqCurvaNormCOM2,status=variable
new load.3000465118M2 bus1=R1199489.1.2.0,Phases=2,kv=0.22,kw=0.367554420547195,pf=0.92,Vminpu=0.92,Vmaxpu=1.5,model=3,daily=arqCurvaNormCOM2,status=variable

new load.3000465120M1 bus1=R1199580.1.0,Phases=1,kv=0.127,kw=0.29461358042162,pf=0.92,Vminpu=0.92,Vmaxpu=1.5,model=2,daily=arqCurvaNormRES3,status=variable
new load.3000465120M2 bus1=R1199580.1.0,Phases=1,kv=0.127,kw=0.29461358042162,pf=0.92,Vminpu=0.92,Vmaxpu=1.5,model=3,daily=arqCurvaNormRES3,status=variable

new load.3000465121M1 bus1=R1199979.1.2.0,Phases=2,kv=0.22,kw=1.19689811056653,pf=0.92,Vminpu=0.92,Vmaxpu=1.5,model=2,daily=arqCurvaNormCOM3,status=variable
new load.3000465121M2 bus1=R1199979.1.2.0,Phases=2,kv=0.22,kw=1.19689811056653,pf=0.92,Vminpu=0.92,Vmaxpu=1.5,model=3,daily=arqCurvaNormCOM3,status=variable

new load.3000465122M1 bus1=R1199979.1.2.0,Phases=2,kv=0.22,kw=0.055846411891248,pf=0.92,Vminpu=0.92,Vmaxpu=1.5,model=2,daily=arqCurvaNormRES2,status=variable
new load.3000465122M2 bus1=R1199979.1.2.0,Phases=2,kv=0.22,kw=0.055846411891248,pf=0.92,Vminpu=0.92,Vmaxpu=1.5,model=3,daily=arqCurvaNormRES2,status=variable

new load.3000465124M1 bus1=R1199944.1.0,Phases=1,kv=0.127,kw=0.0746796220877245,pf=0.92,Vminpu=0.92,Vmaxpu=1.5,model=2,daily=arqCurvaNormRES1,status=variable
new load.3000465124M2 bus1=R1199944.1.0,Phases=1,kv=0.127,kw=0.0746796220877245,pf=0.92,Vminpu=0.92,Vmaxpu=1.5,model=3,daily=arqCurvaNormRES1,status=variable

new load.3000465125M1 bus1=R1200770.1.0,Phases=1,kv=0.127,kw=0.197505603030024,pf=0.92,Vminpu=0.92,Vmaxpu=1.5,model=2,daily=arqCurvaNormRES2,status=variable
new load.3000465125M2 bus1=R1200770.1.0,Phases=1,kv=0.127,kw=0.197505603030024,pf=0.92,Vminpu=0.92,Vmaxpu=1.5,model=3,daily=arqCurvaNormRES2,status=variable

new load.3000465126M1 bus1=R1200784.1.0,Phases=1,kv=0.127,kw=0.249652471762899,pf=0.92,Vminpu=0.92,Vmaxpu=1.5,model=2,daily=arqCurvaNormRES3,status=variable
new load.3000465126M2 bus1=R1200784.1.0,Phases=1,kv=0.127,kw=0.249652471762899,pf=0.92,Vminpu=0.92,Vmaxpu=1.5,model=3,daily=arqCurvaNormRES3,status=variable

new load.3000465129M1 bus1=R1200602.1.2.0,Phases=2,kv=0.22,kw=0.857917715036895,pf=0.92,Vminpu=0.92,Vmaxpu=1.5,model=2,daily=arqCurvaNormRES5,status=variable
new load.3000465129M2 bus1=R1200602.1.2.0,Phases=2,kv=0.22,kw=0.857917715036895,pf=0.92,Vminpu=0.92,Vmaxpu=1.5,model=3,daily=arqCurvaNormRES5,status=variable

new load.3000465130M1 bus1=R1200994.1.2.3.0,Phases=3,kv=0.22,kw=0.0456375468313871,pf=0.92,Vminpu=0.92,Vmaxpu=1.5,model=2,daily=arqCurvaNormRES1,status=variable
new load.3000465130M2 bus1=R1200994.1.2.3.0,Phases=3,kv=0.22,kw=0.0456375468313871,pf=0.92,Vminpu=0.92,Vmaxpu=1.5,model=3,daily=arqCurvaNormRES1,status=variable

new load.3000465133M1 bus1=R4319921.1.2.3.0,Phases=3,kv=0.22,kw=1.36860592601361,pf=0.92,Vminpu=0.92,Vmaxpu=1.5,model=2,daily=arqCurvaNormIND3,status=variable
new load.3000465133M2 bus1=R4319921.1.2.3.0,Phases=3,kv=0.22,kw=1.36860592601361,pf=0.92,Vminpu=0.92,Vmaxpu=1.5,model=3,daily=arqCurvaNormIND3,status=variable

new load.3000465134M1 bus1=R1201176.1.0,Phases=1,kv=0.127,kw=0.774422073670775,pf=0.92,Vminpu=0.92,Vmaxpu=1.5,model=2,daily=arqCurvaNormRES5,status=variable
new load.3000465134M2 bus1=R1201176.1.0,Phases=1,kv=0.127,kw=0.774422073670775,pf=0.92,Vminpu=0.92,Vmaxpu=1.5,model=3,daily=arqCurvaNormRES5,status=variable

new load.3000465135M1 bus1=R1201183.1.2.0,Phases=2,kv=0.22,kw=0.120317168919112,pf=0.92,Vminpu=0.92,Vmaxpu=1.5,model=2,daily=arqCurvaNormRES1,status=variable
new load.3000465135M2 bus1=R1201183.1.2.0,Phases=2,kv=0.22,kw=0.120317168919112,pf=0.92,Vminpu=0.92,Vmaxpu=1.5,model=3,daily=arqCurvaNormRES1,status=variable

new load.3000465137M1 bus1=R1201330.1.0,Phases=1,kv=0.127,kw=0.140799261325995,pf=0.92,Vminpu=0.92,Vmaxpu=1.5,model=2,daily=arqCurvaNormRES3,status=variable
new load.3000465137M2 bus1=R1201330.1.0,Phases=1,kv=0.127,kw=0.140799261325995,pf=0.92,Vminpu=0.92,Vmaxpu=1.5,model=3,daily=arqCurvaNormRES3,status=variable

new load.3000465138M1 bus1=R1201386.1.0,Phases=1,kv=0.127,kw=0.0636159743710245,pf=0.92,Vminpu=0.92,Vmaxpu=1.5,model=2,daily=arqCurvaNormRES1,status=variable
new load.3000465138M2 bus1=R1201386.1.0,Phases=1,kv=0.127,kw=0.0636159743710245,pf=0.92,Vminpu=0.92,Vmaxpu=1.5,model=3,daily=arqCurvaNormRES1,status=variable

new load.3000465139M1 bus1=R1201239.1.0,Phases=1,kv=0.127,kw=0.204316141065542,pf=0.92,Vminpu=0.92,Vmaxpu=1.5,model=2,daily=arqCurvaNormRES2,status=variable
new load.3000465139M2 bus1=R1201239.1.0,Phases=1,kv=0.127,kw=0.204316141065542,pf=0.92,Vminpu=0.92,Vmaxpu=1.5,model=3,daily=arqCurvaNormRES2,status=variable

new load.3000465141M1 bus1=R1201393.1.0,Phases=1,kv=0.127,kw=0.112019433131586,pf=0.92,Vminpu=0.92,Vmaxpu=1.5,model=2,daily=arqCurvaNormRES1,status=variable
new load.3000465141M2 bus1=R1201393.1.0,Phases=1,kv=0.127,kw=0.112019433131586,pf=0.92,Vminpu=0.92,Vmaxpu=1.5,model=3,daily=arqCurvaNormRES1,status=variable

new load.3000465142M1 bus1=R1201043.1.0,Phases=1,kv=0.127,kw=0.070530754193962,pf=0.92,Vminpu=0.92,Vmaxpu=1.5,model=2,daily=arqCurvaNormRES1,status=variable
new load.3000465142M2 bus1=R1201043.1.0,Phases=1,kv=0.127,kw=0.070530754193962,pf=0.92,Vminpu=0.92,Vmaxpu=1.5,model=3,daily=arqCurvaNormRES1,status=variable

new load.3000465146M1 bus1=R1200364.1.0,Phases=1,kv=0.127,kw=0.156642374816916,pf=0.92,Vminpu=0.92,Vmaxpu=1.5,model=2,daily=arqCurvaNormRES2,status=variable
new load.3000465146M2 bus1=R1200364.1.0,Phases=1,kv=0.127,kw=0.156642374816916,pf=0.92,Vminpu=0.92,Vmaxpu=1.5,model=3,daily=arqCurvaNormRES2,status=variable

new load.3000465147M1 bus1=R5203258.1.0,Phases=1,kv=0.127,kw=0.148469729174294,pf=0.92,Vminpu=0.92,Vmaxpu=1.5,model=2,daily=arqCurvaNormRES2,status=variable
new load.3000465147M2 bus1=R5203258.1.0,Phases=1,kv=0.127,kw=0.148469729174294,pf=0.92,Vminpu=0.92,Vmaxpu=1.5,model=3,daily=arqCurvaNormRES2,status=variable

new load.3000465149M1 bus1=R1200238.1.0,Phases=1,kv=0.127,kw=0.268583464882361,pf=0.92,Vminpu=0.92,Vmaxpu=1.5,model=2,daily=arqCurvaNormRES3,status=variable
new load.3000465149M2 bus1=R1200238.1.0,Phases=1,kv=0.127,kw=0.268583464882361,pf=0.92,Vminpu=0.92,Vmaxpu=1.5,model=3,daily=arqCurvaNormRES3,status=variable

new load.3000465151M1 bus1=R1199895.1.2.0,Phases=2,kv=0.22,kw=0.346673811500139,pf=0.92,Vminpu=0.92,Vmaxpu=1.5,model=2,daily=arqCurvaNormRES3,status=variable
new load.3000465151M2 bus1=R1199895.1.2.0,Phases=2,kv=0.22,kw=0.346673811500139,pf=0.92,Vminpu=0.92,Vmaxpu=1.5,model=3,daily=arqCurvaNormRES3,status=variable

new load.3000465152M1 bus1=R1199881.1.0,Phases=1,kv=0.127,kw=0.085743269804424,pf=0.92,Vminpu=0.92,Vmaxpu=1.5,model=2,daily=arqCurvaNormRES1,status=variable
new load.3000465152M2 bus1=R1199881.1.0,Phases=1,kv=0.127,kw=0.085743269804424,pf=0.92,Vminpu=0.92,Vmaxpu=1.5,model=3,daily=arqCurvaNormRES1,status=variable

new load.3000465153M1 bus1=R1199699.1.0,Phases=1,kv=0.127,kw=0.202954033458438,pf=0.92,Vminpu=0.92,Vmaxpu=1.5,model=2,daily=arqCurvaNormRES2,status=variable
new load.3000465153M2 bus1=R1199699.1.0,Phases=1,kv=0.127,kw=0.202954033458438,pf=0.92,Vminpu=0.92,Vmaxpu=1.5,model=3,daily=arqCurvaNormRES2,status=variable

new load.3000465154M1 bus1=R1199741.1.2.0,Phases=2,kv=0.22,kw=0.241370162273134,pf=0.92,Vminpu=0.92,Vmaxpu=1.5,model=2,daily=arqCurvaNormRES3,status=variable
new load.3000465154M2 bus1=R1199741.1.2.0,Phases=2,kv=0.22,kw=0.241370162273134,pf=0.92,Vminpu=0.92,Vmaxpu=1.5,model=3,daily=arqCurvaNormRES3,status=variable

new load.3000465157M1 bus1=R1199321.1.0,Phases=1,kv=0.127,kw=0.0248932073625748,pf=0.92,Vminpu=0.92,Vmaxpu=1.5,model=2,daily=arqCurvaNormRES1,status=variable
new load.3000465157M2 bus1=R1199321.1.0,Phases=1,kv=0.127,kw=0.0248932073625748,pf=0.92,Vminpu=0.92,Vmaxpu=1.5,model=3,daily=arqCurvaNormRES1,status=variable

new load.3000465159M1 bus1=R1199265.1.0,Phases=1,kv=0.127,kw=0.105104653308649,pf=0.92,Vminpu=0.92,Vmaxpu=1.5,model=2,daily=arqCurvaNormRES1,status=variable
new load.3000465159M2 bus1=R1199265.1.0,Phases=1,kv=0.127,kw=0.105104653308649,pf=0.92,Vminpu=0.92,Vmaxpu=1.5,model=3,daily=arqCurvaNormRES1,status=variable

new load.3000465161M1 bus1=R1199153.1.0,Phases=1,kv=0.127,kw=0.0387227670084496,pf=0.92,Vminpu=0.92,Vmaxpu=1.5,model=2,daily=arqCurvaNormRES1,status=variable
new load.3000465161M2 bus1=R1199153.1.0,Phases=1,kv=0.127,kw=0.0387227670084496,pf=0.92,Vminpu=0.92,Vmaxpu=1.5,model=3,daily=arqCurvaNormRES1,status=variable

new load.3000465162M1 bus1=R1199160.1.2.0,Phases=2,kv=0.22,kw=0.09807174771146,pf=0.92,Vminpu=0.92,Vmaxpu=1.5,model=2,daily=arqCurvaNormRES2,status=variable
new load.3000465162M2 bus1=R1199160.1.2.0,Phases=2,kv=0.22,kw=0.09807174771146,pf=0.92,Vminpu=0.92,Vmaxpu=1.5,model=3,daily=arqCurvaNormRES2,status=variable

new load.3000465163M1 bus1=R1199307.1.0,Phases=1,kv=0.127,kw=0.140297083531672,pf=0.92,Vminpu=0.92,Vmaxpu=1.5,model=2,daily=arqCurvaNormRES2,status=variable
new load.3000465163M2 bus1=R1199307.1.0,Phases=1,kv=0.127,kw=0.140297083531672,pf=0.92,Vminpu=0.92,Vmaxpu=1.5,model=3,daily=arqCurvaNormRES2,status=variable

new load.3000465164M1 bus1=R1199300.1.0,Phases=1,kv=0.127,kw=0.181027621704851,pf=0.92,Vminpu=0.92,Vmaxpu=1.5,model=2,daily=arqCurvaNormRES3,status=variable
new load.3000465164M2 bus1=R1199300.1.0,Phases=1,kv=0.127,kw=0.181027621704851,pf=0.92,Vminpu=0.92,Vmaxpu=1.5,model=3,daily=arqCurvaNormRES3,status=variable

new load.3000465165M1 bus1=R1199293.1.0,Phases=1,kv=0.127,kw=0.070530754193962,pf=0.92,Vminpu=0.92,Vmaxpu=1.5,model=2,daily=arqCurvaNormRES1,status=variable
new load.3000465165M2 bus1=R1199293.1.0,Phases=1,kv=0.127,kw=0.070530754193962,pf=0.92,Vminpu=0.92,Vmaxpu=1.5,model=3,daily=arqCurvaNormRES1,status=variable

new load.3000465166M1 bus1=R1199251.1.0,Phases=1,kv=0.127,kw=0.222023539957889,pf=0.92,Vminpu=0.92,Vmaxpu=1.5,model=2,daily=arqCurvaNormRES2,status=variable
new load.3000465166M2 bus1=R1199251.1.0,Phases=1,kv=0.127,kw=0.222023539957889,pf=0.92,Vminpu=0.92,Vmaxpu=1.5,model=3,daily=arqCurvaNormRES2,status=variable

new load.3000465167M1 bus1=R1199258.1.0,Phases=1,kv=0.127,kw=0.117551256989937,pf=0.92,Vminpu=0.92,Vmaxpu=1.5,model=2,daily=arqCurvaNormRES1,status=variable
new load.3000465167M2 bus1=R1199258.1.0,Phases=1,kv=0.127,kw=0.117551256989937,pf=0.92,Vminpu=0.92,Vmaxpu=1.5,model=3,daily=arqCurvaNormRES1,status=variable

new load.3000465168M1 bus1=R1199328.1.0,Phases=1,kv=0.127,kw=0.110330716175393,pf=0.92,Vminpu=0.92,Vmaxpu=1.5,model=2,daily=arqCurvaNormRES2,status=variable
new load.3000465168M2 bus1=R1199328.1.0,Phases=1,kv=0.127,kw=0.110330716175393,pf=0.92,Vminpu=0.92,Vmaxpu=1.5,model=3,daily=arqCurvaNormRES2,status=variable

new load.3000465169M1 bus1=R1199335.1.0,Phases=1,kv=0.127,kw=0.166177128066641,pf=0.92,Vminpu=0.92,Vmaxpu=1.5,model=2,daily=arqCurvaNormRES2,status=variable
new load.3000465169M2 bus1=R1199335.1.0,Phases=1,kv=0.127,kw=0.166177128066641,pf=0.92,Vminpu=0.92,Vmaxpu=1.5,model=3,daily=arqCurvaNormRES2,status=variable

new load.3000465173M1 bus1=R10622397.1.0,Phases=1,kv=0.127,kw=0.176271878561604,pf=0.92,Vminpu=0.92,Vmaxpu=1.5,model=2,daily=arqCurvaNormCOM1,status=variable
new load.3000465173M2 bus1=R10622397.1.0,Phases=1,kv=0.127,kw=0.176271878561604,pf=0.92,Vminpu=0.92,Vmaxpu=1.5,model=3,daily=arqCurvaNormCOM1,status=variable

new load.3000465174M1 bus1=R1199874.1.0,Phases=1,kv=0.127,kw=0.251989907314168,pf=0.92,Vminpu=0.92,Vmaxpu=1.5,model=2,daily=arqCurvaNormRES2,status=variable
new load.3000465174M2 bus1=R1199874.1.0,Phases=1,kv=0.127,kw=0.251989907314168,pf=0.92,Vminpu=0.92,Vmaxpu=1.5,model=3,daily=arqCurvaNormRES2,status=variable

new load.3000465178M1 bus1=R1200357.1.0,Phases=1,kv=0.127,kw=0.129400222674843,pf=0.92,Vminpu=0.92,Vmaxpu=1.5,model=2,daily=arqCurvaNormRES2,status=variable
new load.3000465178M2 bus1=R1200357.1.0,Phases=1,kv=0.127,kw=0.129400222674843,pf=0.92,Vminpu=0.92,Vmaxpu=1.5,model=3,daily=arqCurvaNormRES2,status=variable

new load.3000465180M1 bus1=R6180479.1.0,Phases=1,kv=0.127,kw=0.0304250312209247,pf=0.92,Vminpu=0.92,Vmaxpu=1.5,model=2,daily=arqCurvaNormRES1,status=variable
new load.3000465180M2 bus1=R6180479.1.0,Phases=1,kv=0.127,kw=0.0304250312209247,pf=0.92,Vminpu=0.92,Vmaxpu=1.5,model=3,daily=arqCurvaNormRES1,status=variable

new load.3000465183M1 bus1=R1201001.1.2.3.0,Phases=3,kv=0.22,kw=0.158004482424019,pf=0.92,Vminpu=0.92,Vmaxpu=1.5,model=2,daily=arqCurvaNormRES2,status=variable
new load.3000465183M2 bus1=R1201001.1.2.3.0,Phases=3,kv=0.22,kw=0.158004482424019,pf=0.92,Vminpu=0.92,Vmaxpu=1.5,model=3,daily=arqCurvaNormRES2,status=variable

new load.3000465185M1 bus1=R1201050.1.0,Phases=1,kv=0.127,kw=0.130762330281947,pf=0.92,Vminpu=0.92,Vmaxpu=1.5,model=2,daily=arqCurvaNormRES2,status=variable
new load.3000465185M2 bus1=R1201050.1.0,Phases=1,kv=0.127,kw=0.130762330281947,pf=0.92,Vminpu=0.92,Vmaxpu=1.5,model=3,daily=arqCurvaNormRES2,status=variable

new load.3000465186M1 bus1=R1201071.1.0,Phases=1,kv=0.127,kw=0.0719137101585495,pf=0.92,Vminpu=0.92,Vmaxpu=1.5,model=2,daily=arqCurvaNormRES1,status=variable
new load.3000465186M2 bus1=R1201071.1.0,Phases=1,kv=0.127,kw=0.0719137101585495,pf=0.92,Vminpu=0.92,Vmaxpu=1.5,model=3,daily=arqCurvaNormRES1,status=variable

new load.3000465187M1 bus1=R1201428.1.0,Phases=1,kv=0.127,kw=0.155280267209812,pf=0.92,Vminpu=0.92,Vmaxpu=1.5,model=2,daily=arqCurvaNormRES2,status=variable
new load.3000465187M2 bus1=R1201428.1.0,Phases=1,kv=0.127,kw=0.155280267209812,pf=0.92,Vminpu=0.92,Vmaxpu=1.5,model=3,daily=arqCurvaNormRES2,status=variable

new load.3000465188M1 bus1=R1201337.1.0,Phases=1,kv=0.127,kw=0.121227577032222,pf=0.92,Vminpu=0.92,Vmaxpu=1.5,model=2,daily=arqCurvaNormRES2,status=variable
new load.3000465188M2 bus1=R1201337.1.0,Phases=1,kv=0.127,kw=0.121227577032222,pf=0.92,Vminpu=0.92,Vmaxpu=1.5,model=3,daily=arqCurvaNormRES2,status=variable

new load.3000465189M1 bus1=R10367850.1.2.3.0,Phases=3,kv=0.22,kw=0.195225866544447,pf=0.92,Vminpu=0.92,Vmaxpu=1.5,model=2,daily=arqCurvaNormRES3,status=variable
new load.3000465189M2 bus1=R10367850.1.2.3.0,Phases=3,kv=0.22,kw=0.195225866544447,pf=0.92,Vminpu=0.92,Vmaxpu=1.5,model=3,daily=arqCurvaNormRES3,status=variable

new load.3000465190M1 bus1=R1201575.1.0,Phases=1,kv=0.127,kw=0.100955785414887,pf=0.92,Vminpu=0.92,Vmaxpu=1.5,model=2,daily=arqCurvaNormRES1,status=variable
new load.3000465190M2 bus1=R1201575.1.0,Phases=1,kv=0.127,kw=0.100955785414887,pf=0.92,Vminpu=0.92,Vmaxpu=1.5,model=3,daily=arqCurvaNormRES1,status=variable

new load.3000465191M1 bus1=R1201568.1.0,Phases=1,kv=0.127,kw=0.314214563899047,pf=0.92,Vminpu=0.92,Vmaxpu=1.5,model=2,daily=arqCurvaNormRES4,status=variable
new load.3000465191M2 bus1=R1201568.1.0,Phases=1,kv=0.127,kw=0.314214563899047,pf=0.92,Vminpu=0.92,Vmaxpu=1.5,model=3,daily=arqCurvaNormRES4,status=variable

new load.3000465192M1 bus1=R1201505.1.0,Phases=1,kv=0.127,kw=0.189332957387402,pf=0.92,Vminpu=0.92,Vmaxpu=1.5,model=2,daily=arqCurvaNormRES2,status=variable
new load.3000465192M2 bus1=R1201505.1.0,Phases=1,kv=0.127,kw=0.189332957387402,pf=0.92,Vminpu=0.92,Vmaxpu=1.5,model=3,daily=arqCurvaNormRES2,status=variable

new load.3000465193M1 bus1=R1201526.1.0,Phases=1,kv=0.127,kw=0.151193944388501,pf=0.92,Vminpu=0.92,Vmaxpu=1.5,model=2,daily=arqCurvaNormRES2,status=variable
new load.3000465193M2 bus1=R1201526.1.0,Phases=1,kv=0.127,kw=0.151193944388501,pf=0.92,Vminpu=0.92,Vmaxpu=1.5,model=3,daily=arqCurvaNormRES2,status=variable

new load.3000465194M1 bus1=R1201414.1.0,Phases=1,kv=0.127,kw=0.170263450887952,pf=0.92,Vminpu=0.92,Vmaxpu=1.5,model=2,daily=arqCurvaNormRES2,status=variable
new load.3000465194M2 bus1=R1201414.1.0,Phases=1,kv=0.127,kw=0.170263450887952,pf=0.92,Vminpu=0.92,Vmaxpu=1.5,model=3,daily=arqCurvaNormRES2,status=variable

new load.3000465195M1 bus1=R1201533.1.0,Phases=1,kv=0.127,kw=0.099572829450299,pf=0.92,Vminpu=0.92,Vmaxpu=1.5,model=2,daily=arqCurvaNormRES1,status=variable
new load.3000465195M2 bus1=R1201533.1.0,Phases=1,kv=0.127,kw=0.099572829450299,pf=0.92,Vminpu=0.92,Vmaxpu=1.5,model=3,daily=arqCurvaNormRES1,status=variable

new load.3000465196M1 bus1=R1201400.1.0,Phases=1,kv=0.127,kw=0.076062578052312,pf=0.92,Vminpu=0.92,Vmaxpu=1.5,model=2,daily=arqCurvaNormRES1,status=variable
new load.3000465196M2 bus1=R1201400.1.0,Phases=1,kv=0.127,kw=0.076062578052312,pf=0.92,Vminpu=0.92,Vmaxpu=1.5,model=3,daily=arqCurvaNormRES1,status=variable

new load.3000465197M1 bus1=R1199195.1.0,Phases=1,kv=0.127,kw=0.253202032972798,pf=0.92,Vminpu=0.92,Vmaxpu=1.5,model=2,daily=arqCurvaNormRES3,status=variable
new load.3000465197M2 bus1=R1199195.1.0,Phases=1,kv=0.127,kw=0.253202032972798,pf=0.92,Vminpu=0.92,Vmaxpu=1.5,model=3,daily=arqCurvaNormRES3,status=variable

new load.3000465198M1 bus1=R1201008.1.0,Phases=1,kv=0.127,kw=0.0470205027959746,pf=0.92,Vminpu=0.92,Vmaxpu=1.5,model=2,daily=arqCurvaNormRES1,status=variable
new load.3000465198M2 bus1=R1201008.1.0,Phases=1,kv=0.127,kw=0.0470205027959746,pf=0.92,Vminpu=0.92,Vmaxpu=1.5,model=3,daily=arqCurvaNormRES1,status=variable

new load.3000465199M1 bus1=R1201015.1.0,Phases=1,kv=0.127,kw=0.129400222674843,pf=0.92,Vminpu=0.92,Vmaxpu=1.5,model=2,daily=arqCurvaNormRES2,status=variable
new load.3000465199M2 bus1=R1201015.1.0,Phases=1,kv=0.127,kw=0.129400222674843,pf=0.92,Vminpu=0.92,Vmaxpu=1.5,model=3,daily=arqCurvaNormRES2,status=variable

new load.3000465201M1 bus1=R1199902.1.0,Phases=1,kv=0.127,kw=0.078828489981487,pf=0.92,Vminpu=0.92,Vmaxpu=1.5,model=2,daily=arqCurvaNormRES1,status=variable
new load.3000465201M2 bus1=R1199902.1.0,Phases=1,kv=0.127,kw=0.078828489981487,pf=0.92,Vminpu=0.92,Vmaxpu=1.5,model=3,daily=arqCurvaNormRES1,status=variable

new load.3000465202M1 bus1=R1199811.1.0,Phases=1,kv=0.127,kw=0.067764842264787,pf=0.92,Vminpu=0.92,Vmaxpu=1.5,model=2,daily=arqCurvaNormRES1,status=variable
new load.3000465202M2 bus1=R1199811.1.0,Phases=1,kv=0.127,kw=0.067764842264787,pf=0.92,Vminpu=0.92,Vmaxpu=1.5,model=3,daily=arqCurvaNormRES1,status=variable

new load.3000465204M1 bus1=R1199923.1.2.0,Phases=2,kv=0.22,kw=0.0802114459460745,pf=0.92,Vminpu=0.92,Vmaxpu=1.5,model=2,daily=arqCurvaNormRES1,status=variable
new load.3000465204M2 bus1=R1199923.1.2.0,Phases=2,kv=0.22,kw=0.0802114459460745,pf=0.92,Vminpu=0.92,Vmaxpu=1.5,model=3,daily=arqCurvaNormRES1,status=variable

new load.3000465206M1 bus1=R1199818.1.0,Phases=1,kv=0.127,kw=0.132763772600399,pf=0.92,Vminpu=0.92,Vmaxpu=1.5,model=2,daily=arqCurvaNormRES1,status=variable
new load.3000465206M2 bus1=R1199818.1.0,Phases=1,kv=0.127,kw=0.132763772600399,pf=0.92,Vminpu=0.92,Vmaxpu=1.5,model=3,daily=arqCurvaNormRES1,status=variable

new load.3000465208M1 bus1=R1199853.1.0,Phases=1,kv=0.127,kw=0.120317168919112,pf=0.92,Vminpu=0.92,Vmaxpu=1.5,model=2,daily=arqCurvaNormRES1,status=variable
new load.3000465208M2 bus1=R1199853.1.0,Phases=1,kv=0.127,kw=0.120317168919112,pf=0.92,Vminpu=0.92,Vmaxpu=1.5,model=3,daily=arqCurvaNormRES1,status=variable

new load.3000465210M1 bus1=R1199867.1.2.0,Phases=2,kv=0.22,kw=0.059467106477262,pf=0.92,Vminpu=0.92,Vmaxpu=1.5,model=2,daily=arqCurvaNormRES1,status=variable
new load.3000465210M2 bus1=R1199867.1.2.0,Phases=2,kv=0.22,kw=0.059467106477262,pf=0.92,Vminpu=0.92,Vmaxpu=1.5,model=3,daily=arqCurvaNormRES1,status=variable

new load.3000465211M1 bus1=R1199860.1.0,Phases=1,kv=0.127,kw=0.163452912852433,pf=0.92,Vminpu=0.92,Vmaxpu=1.5,model=2,daily=arqCurvaNormRES2,status=variable
new load.3000465211M2 bus1=R1199860.1.0,Phases=1,kv=0.127,kw=0.163452912852433,pf=0.92,Vminpu=0.92,Vmaxpu=1.5,model=3,daily=arqCurvaNormRES2,status=variable

new load.3000465212M1 bus1=R1200280.1.0,Phases=1,kv=0.127,kw=0.0636159743710245,pf=0.92,Vminpu=0.92,Vmaxpu=1.5,model=2,daily=arqCurvaNormRES1,status=variable
new load.3000465212M2 bus1=R1200280.1.0,Phases=1,kv=0.127,kw=0.0636159743710245,pf=0.92,Vminpu=0.92,Vmaxpu=1.5,model=3,daily=arqCurvaNormRES1,status=variable

new load.3000465213M1 bus1=R1200273.1.0,Phases=1,kv=0.127,kw=0.179798204137677,pf=0.92,Vminpu=0.92,Vmaxpu=1.5,model=2,daily=arqCurvaNormRES2,status=variable
new load.3000465213M2 bus1=R1200273.1.0,Phases=1,kv=0.127,kw=0.179798204137677,pf=0.92,Vminpu=0.92,Vmaxpu=1.5,model=3,daily=arqCurvaNormRES2,status=variable

new load.3000465215M1 bus1=R1200301.1.0,Phases=1,kv=0.127,kw=0.123951792246429,pf=0.92,Vminpu=0.92,Vmaxpu=1.5,model=2,daily=arqCurvaNormRES2,status=variable
new load.3000465215M2 bus1=R1200301.1.0,Phases=1,kv=0.127,kw=0.123951792246429,pf=0.92,Vminpu=0.92,Vmaxpu=1.5,model=3,daily=arqCurvaNormRES2,status=variable

new load.3000465216M1 bus1=R1200308.1.0,Phases=1,kv=0.127,kw=0.132124437889051,pf=0.92,Vminpu=0.92,Vmaxpu=1.5,model=2,daily=arqCurvaNormRES2,status=variable
new load.3000465216M2 bus1=R1200308.1.0,Phases=1,kv=0.127,kw=0.132124437889051,pf=0.92,Vminpu=0.92,Vmaxpu=1.5,model=3,daily=arqCurvaNormRES2,status=variable

new load.3000465217M1 bus1=R1199839.1.2.3.0,Phases=3,kv=0.22,kw=0.170263450887952,pf=0.92,Vminpu=0.92,Vmaxpu=1.5,model=2,daily=arqCurvaNormRES2,status=variable
new load.3000465217M2 bus1=R1199839.1.2.3.0,Phases=3,kv=0.22,kw=0.170263450887952,pf=0.92,Vminpu=0.92,Vmaxpu=1.5,model=3,daily=arqCurvaNormRES2,status=variable

new load.3000465218M1 bus1=R1200329.1.0,Phases=1,kv=0.127,kw=0.073553810783595,pf=0.92,Vminpu=0.92,Vmaxpu=1.5,model=2,daily=arqCurvaNormRES2,status=variable
new load.3000465218M2 bus1=R1200329.1.0,Phases=1,kv=0.127,kw=0.073553810783595,pf=0.92,Vminpu=0.92,Vmaxpu=1.5,model=3,daily=arqCurvaNormRES2,status=variable

new load.3000465219M1 bus1=R1201484.1.0,Phases=1,kv=0.127,kw=0.257438337742583,pf=0.92,Vminpu=0.92,Vmaxpu=1.5,model=2,daily=arqCurvaNormRES2,status=variable
new load.3000465219M2 bus1=R1201484.1.0,Phases=1,kv=0.127,kw=0.257438337742583,pf=0.92,Vminpu=0.92,Vmaxpu=1.5,model=3,daily=arqCurvaNormRES2,status=variable

new load.3000465220M1 bus1=R1201491.1.0,Phases=1,kv=0.127,kw=0.0248932073625748,pf=0.92,Vminpu=0.92,Vmaxpu=1.5,model=2,daily=arqCurvaNormRES1,status=variable
new load.3000465220M2 bus1=R1201491.1.0,Phases=1,kv=0.127,kw=0.0248932073625748,pf=0.92,Vminpu=0.92,Vmaxpu=1.5,model=3,daily=arqCurvaNormRES1,status=variable

new load.3000465221M1 bus1=R1201470.1.0,Phases=1,kv=0.127,kw=0.102338741379474,pf=0.92,Vminpu=0.92,Vmaxpu=1.5,model=2,daily=arqCurvaNormRES1,status=variable
new load.3000465221M2 bus1=R1201470.1.0,Phases=1,kv=0.127,kw=0.102338741379474,pf=0.92,Vminpu=0.92,Vmaxpu=1.5,model=3,daily=arqCurvaNormRES1,status=variable

new load.3000465222M1 bus1=R1201449.1.2.0,Phases=2,kv=0.22,kw=0.0235102513979873,pf=0.92,Vminpu=0.92,Vmaxpu=1.5,model=2,daily=arqCurvaNormRES1,status=variable
new load.3000465222M2 bus1=R1201449.1.2.0,Phases=2,kv=0.22,kw=0.0235102513979873,pf=0.92,Vminpu=0.92,Vmaxpu=1.5,model=3,daily=arqCurvaNormRES1,status=variable

new load.3000465225M1 bus1=R1201379.1.0,Phases=1,kv=0.127,kw=0.41490880638407,pf=0.92,Vminpu=0.92,Vmaxpu=1.5,model=2,daily=arqCurvaNormRES4,status=variable
new load.3000465225M2 bus1=R1201379.1.0,Phases=1,kv=0.127,kw=0.41490880638407,pf=0.92,Vminpu=0.92,Vmaxpu=1.5,model=3,daily=arqCurvaNormRES4,status=variable

new load.3000465226M1 bus1=R1201351.1.0,Phases=1,kv=0.127,kw=0.0830885640333205,pf=0.92,Vminpu=0.92,Vmaxpu=1.5,model=2,daily=arqCurvaNormRES2,status=variable
new load.3000465226M2 bus1=R1201351.1.0,Phases=1,kv=0.127,kw=0.0830885640333205,pf=0.92,Vminpu=0.92,Vmaxpu=1.5,model=3,daily=arqCurvaNormRES2,status=variable

new load.3000465227M1 bus1=R1201344.1.0,Phases=1,kv=0.127,kw=0.144383406352983,pf=0.92,Vminpu=0.92,Vmaxpu=1.5,model=2,daily=arqCurvaNormRES2,status=variable
new load.3000465227M2 bus1=R1201344.1.0,Phases=1,kv=0.127,kw=0.144383406352983,pf=0.92,Vminpu=0.92,Vmaxpu=1.5,model=3,daily=arqCurvaNormRES2,status=variable

new load.3000465230M1 bus1=R1201323.1.0,Phases=1,kv=0.127,kw=0.159366590031123,pf=0.92,Vminpu=0.92,Vmaxpu=1.5,model=2,daily=arqCurvaNormRES2,status=variable
new load.3000465230M2 bus1=R1201323.1.0,Phases=1,kv=0.127,kw=0.159366590031123,pf=0.92,Vminpu=0.92,Vmaxpu=1.5,model=3,daily=arqCurvaNormRES2,status=variable

new load.3000465232M1 bus1=R1201211.1.0,Phases=1,kv=0.127,kw=0.220661432350786,pf=0.92,Vminpu=0.92,Vmaxpu=1.5,model=2,daily=arqCurvaNormRES2,status=variable
new load.3000465232M2 bus1=R1201211.1.0,Phases=1,kv=0.127,kw=0.220661432350786,pf=0.92,Vminpu=0.92,Vmaxpu=1.5,model=3,daily=arqCurvaNormRES2,status=variable

new load.3000465233M1 bus1=R1201225.1.0,Phases=1,kv=0.127,kw=0.239003788133202,pf=0.92,Vminpu=0.92,Vmaxpu=1.5,model=2,daily=arqCurvaNormRES3,status=variable
new load.3000465233M2 bus1=R1201225.1.0,Phases=1,kv=0.127,kw=0.239003788133202,pf=0.92,Vminpu=0.92,Vmaxpu=1.5,model=3,daily=arqCurvaNormRES3,status=variable

new load.3000465234M1 bus1=R1201218.1.2.0,Phases=2,kv=0.22,kw=0.320643695960879,pf=0.92,Vminpu=0.92,Vmaxpu=1.5,model=2,daily=arqCurvaNormRES3,status=variable
new load.3000465234M2 bus1=R1201218.1.2.0,Phases=2,kv=0.22,kw=0.320643695960879,pf=0.92,Vminpu=0.92,Vmaxpu=1.5,model=3,daily=arqCurvaNormRES3,status=variable

new load.3000465235M1 bus1=R1200854.1.0,Phases=1,kv=0.127,kw=0.110330716175393,pf=0.92,Vminpu=0.92,Vmaxpu=1.5,model=2,daily=arqCurvaNormRES2,status=variable
new load.3000465235M2 bus1=R1200854.1.0,Phases=1,kv=0.127,kw=0.110330716175393,pf=0.92,Vminpu=0.92,Vmaxpu=1.5,model=3,daily=arqCurvaNormRES2,status=variable

new load.3000465236M1 bus1=R1200595.1.2.0,Phases=2,kv=0.22,kw=0.400256446057175,pf=0.92,Vminpu=0.92,Vmaxpu=1.5,model=2,daily=arqCurvaNormCOM1,status=variable
new load.3000465236M2 bus1=R1200595.1.2.0,Phases=2,kv=0.22,kw=0.400256446057175,pf=0.92,Vminpu=0.92,Vmaxpu=1.5,model=3,daily=arqCurvaNormCOM1,status=variable

new load.3000465237M1 bus1=R1200595.1.2.0,Phases=2,kv=0.22,kw=0.223385647564992,pf=0.92,Vminpu=0.92,Vmaxpu=1.5,model=2,daily=arqCurvaNormRES2,status=variable
new load.3000465237M2 bus1=R1200595.1.2.0,Phases=2,kv=0.22,kw=0.223385647564992,pf=0.92,Vminpu=0.92,Vmaxpu=1.5,model=3,daily=arqCurvaNormRES2,status=variable

new load.3000465238M1 bus1=R1200609.1.0,Phases=1,kv=0.127,kw=0.187970849780298,pf=0.92,Vminpu=0.92,Vmaxpu=1.5,model=2,daily=arqCurvaNormRES2,status=variable
new load.3000465238M2 bus1=R1200609.1.0,Phases=1,kv=0.127,kw=0.187970849780298,pf=0.92,Vminpu=0.92,Vmaxpu=1.5,model=3,daily=arqCurvaNormRES2,status=variable

new load.3000465239M1 bus1=R1200588.1.0,Phases=1,kv=0.127,kw=0.0179784275396374,pf=0.92,Vminpu=0.92,Vmaxpu=1.5,model=2,daily=arqCurvaNormRES1,status=variable
new load.3000465239M2 bus1=R1200588.1.0,Phases=1,kv=0.127,kw=0.0179784275396374,pf=0.92,Vminpu=0.92,Vmaxpu=1.5,model=3,daily=arqCurvaNormRES1,status=variable

new load.3000465241M1 bus1=R1200749.1.2.3.0,Phases=3,kv=0.22,kw=0.69537322806226,pf=0.92,Vminpu=0.92,Vmaxpu=1.5,model=2,daily=arqCurvaNormCOM2,status=variable
new load.3000465241M2 bus1=R1200749.1.2.3.0,Phases=3,kv=0.22,kw=0.69537322806226,pf=0.92,Vminpu=0.92,Vmaxpu=1.5,model=3,daily=arqCurvaNormCOM2,status=variable

new load.3000465242M1 bus1=R1200763.1.2.3.0,Phases=3,kv=0.22,kw=0.239730938850236,pf=0.92,Vminpu=0.92,Vmaxpu=1.5,model=2,daily=arqCurvaNormRES2,status=variable
new load.3000465242M2 bus1=R1200763.1.2.3.0,Phases=3,kv=0.22,kw=0.239730938850236,pf=0.92,Vminpu=0.92,Vmaxpu=1.5,model=3,daily=arqCurvaNormRES2,status=variable

new load.3000465245M1 bus1=R1199958.1.2.0,Phases=2,kv=0.22,kw=0.0193613835042248,pf=0.92,Vminpu=0.92,Vmaxpu=1.5,model=2,daily=arqCurvaNormRES1,status=variable
new load.3000465245M2 bus1=R1199958.1.2.0,Phases=2,kv=0.22,kw=0.0193613835042248,pf=0.92,Vminpu=0.92,Vmaxpu=1.5,model=3,daily=arqCurvaNormRES1,status=variable

new load.3000465246M1 bus1=R1199958.1.2.0,Phases=2,kv=0.22,kw=0.0746796220877245,pf=0.92,Vminpu=0.92,Vmaxpu=1.5,model=2,daily=arqCurvaNormRES1,status=variable
new load.3000465246M2 bus1=R1199958.1.2.0,Phases=2,kv=0.22,kw=0.0746796220877245,pf=0.92,Vminpu=0.92,Vmaxpu=1.5,model=3,daily=arqCurvaNormRES1,status=variable

new load.3000465247M1 bus1=R1199965.1.0,Phases=1,kv=0.127,kw=0.205678248672646,pf=0.92,Vminpu=0.92,Vmaxpu=1.5,model=2,daily=arqCurvaNormRES2,status=variable
new load.3000465247M2 bus1=R1199965.1.0,Phases=1,kv=0.127,kw=0.205678248672646,pf=0.92,Vminpu=0.92,Vmaxpu=1.5,model=3,daily=arqCurvaNormRES2,status=variable

new load.3000465248M1 bus1=R1199972.1.0,Phases=1,kv=0.127,kw=0.35613930805987,pf=0.92,Vminpu=0.92,Vmaxpu=1.5,model=2,daily=arqCurvaNormRES3,status=variable
new load.3000465248M2 bus1=R1199972.1.0,Phases=1,kv=0.127,kw=0.35613930805987,pf=0.92,Vminpu=0.92,Vmaxpu=1.5,model=3,daily=arqCurvaNormRES3,status=variable

new load.3000465250M1 bus1=R1199986.1.2.0,Phases=2,kv=0.22,kw=0.0354147977846939,pf=0.92,Vminpu=0.92,Vmaxpu=1.5,model=2,daily=arqCurvaNormRES2,status=variable
new load.3000465250M2 bus1=R1199986.1.2.0,Phases=2,kv=0.22,kw=0.0354147977846939,pf=0.92,Vminpu=0.92,Vmaxpu=1.5,model=3,daily=arqCurvaNormRES2,status=variable

new load.3000465251M1 bus1=R1199986.1.2.0,Phases=2,kv=0.22,kw=0.279649371251867,pf=0.92,Vminpu=0.92,Vmaxpu=1.5,model=2,daily=arqCurvaNormCOM1,status=variable
new load.3000465251M2 bus1=R1199986.1.2.0,Phases=2,kv=0.22,kw=0.279649371251867,pf=0.92,Vminpu=0.92,Vmaxpu=1.5,model=3,daily=arqCurvaNormCOM1,status=variable

new load.3000465253M1 bus1=R1199587.1.0,Phases=1,kv=0.127,kw=0.265687218123133,pf=0.92,Vminpu=0.92,Vmaxpu=1.5,model=2,daily=arqCurvaNormRES4,status=variable