new line.TR12115810 bus1=BMT148367461.1.2.3.0,bus2=BMT649317B.1.2.3.0,Phases=3,Linecode=CABA06_3_3,Length=0.027677,Units=km
new line.TR12115811 bus1=BMT649317B.1.2.3.0,bus2=BMT649324B.1.2.3.0,Phases=3,Linecode=CABA06_3_3,Length=0.034509,Units=km
new line.TR12115812 bus1=BMT649324B.1.2.3.0,bus2=BMT148367462.1.2.3.0,Phases=3,Linecode=CABA06_3_3,Length=0.042783,Units=km
new line.TR12150033 bus1=BMT155935602.1.2.3.0,bus2=BMT8745855B.1.2.3.0,Phases=3,Linecode=CABA06_3_3,Length=0.028007,Units=km
new line.TR12150034 bus1=BMT8745855B.1.2.3.0,bus2=BMT8745857B.1.2.3.0,Phases=3,Linecode=CABA06_3_3,Length=0.043915,Units=km
new line.TR12150035 bus1=BMT8745857B.1.2.3.0,bus2=BMT8745859B.1.2.3.0,Phases=3,Linecode=CABA06_3_3,Length=0.006401,Units=km
new line.TR12150036 bus1=BMT8745859B.1.2.3.0,bus2=BMT8745860B.1.2.3.0,Phases=3,Linecode=CABA06_3_3,Length=0.022464,Units=km
new line.TR12150037 bus1=BMT8745860B.1.2.3.0,bus2=BMT8745862B.1.2.3.0,Phases=3,Linecode=CABA06_3_3,Length=0.031004,Units=km
new line.TR12150038 bus1=BMT8745862B.1.2.3.0,bus2=BMT155935603.1.2.3.0,Phases=3,Linecode=CABA06_3_3,Length=0.028781,Units=km
new line.TR12150039 bus1=BMT155935603.1.2.3.0,bus2=BMT8745863B.1.2.3.0,Phases=3,Linecode=CABA06_3_3,Length=0.005384,Units=km
new line.TR12150040 bus1=BMT8745863B.1.2.3.0,bus2=BMT155935604.1.2.3.0,Phases=3,Linecode=CABA06_3_3,Length=0.022464,Units=km
new line.TR12150041 bus1=BMT155935603.1.2.3.0,bus2=BMT8745869B.1.2.3.0,Phases=3,Linecode=CABA06_3_3,Length=0.032637,Units=km
new line.TR12150043 bus1=BMT155935603.1.2.3.0,bus2=BMT155935605.1.2.3.0,Phases=3,Linecode=CABA06_3_3,Length=0.006081,Units=km
new line.TR12150044 bus1=BMT155935606.1.2.3.0,bus2=BMT155935607.1.2.3.0,Phases=3,Linecode=CABA06_3_3,Length=0.016486,Units=km
new line.TR12150144 bus1=BMT155935594.1.2.3.0,bus2=BMT8745942B.1.2.3.0,Phases=3,Linecode=CABA06_3_3,Length=0.014031,Units=km
new line.TR12150145 bus1=BMT8745942B.1.2.3.0,bus2=BMT8745944B.1.2.3.0,Phases=3,Linecode=CABA06_3_3,Length=0.028625,Units=km
new line.TR12150146 bus1=BMT8745944B.1.2.3.0,bus2=BMT155935595.1.2.3.0,Phases=3,Linecode=CABA06_3_3,Length=0.019228,Units=km
new line.TR12150147 bus1=BMT155935595.1.2.3.0,bus2=BMT8745945B.1.2.3.0,Phases=3,Linecode=CABA06_3_3,Length=0.005384,Units=km
new line.TR12150148 bus1=BMT8745945B.1.2.3.0,bus2=BMT8745960B.1.2.3.0,Phases=3,Linecode=CABA06_3_3,Length=0.034915,Units=km
new line.TR12118082 bus1=BMT160297616.1.0,bus2=BMT8710759B.1.0,Phases=1,Linecode=CAB202_3_1,Length=0.071419,Units=km
new line.TR12118083 bus1=BMT8710759B.1.0,bus2=BMT8710761B.1.0,Phases=1,Linecode=CAB202_3_1,Length=0.096897,Units=km
new line.TR12118084 bus1=BMT8710761B.1.0,bus2=BMT8710764B.1.0,Phases=1,Linecode=CAB202_3_1,Length=0.101745,Units=km
new line.TR12118085 bus1=BMT8710764B.1.0,bus2=BMT160297618.1.0,Phases=1,Linecode=CAB202_3_1,Length=0.099526,Units=km
new line.TR12120505 bus1=BMT162213199.1.0,bus2=BMT8713329B.1.0,Phases=1,Linecode=CAB202_3_1,Length=0.064022,Units=km
new line.TR12120506 bus1=BMT8713329B.1.0,bus2=BMT162213201.1.0,Phases=1,Linecode=CAB202_3_1,Length=0.196166,Units=km
new line.TR12151789 bus1=BMT640077B.1.2.3.0,bus2=BMT8747426B.1.2.3.0,Phases=3,Linecode=CAB104_3_3,Length=0.025486,Units=km
new line.TR12151790 bus1=BMT8747426B.1.2.3.0,bus2=BMT8747421B.1.2.3.0,Phases=3,Linecode=CAB104_3_3,Length=0.008541,Units=km
new line.TR12151791 bus1=BMT8747426B.1.2.3.0,bus2=BMT640084B.1.2.3.0,Phases=3,Linecode=CAB104_3_3,Length=0.00806,Units=km
new line.TR12151792 bus1=BMT8747426B.1.2.3.0,bus2=BMT8747435B.1.2.3.0,Phases=3,Linecode=CAB104_3_3,Length=0.018378,Units=km
new line.TR12151793 bus1=BMT8747435B.1.2.3.0,bus2=BMT647532B.1.2.3.0,Phases=3,Linecode=CAB104_3_3,Length=0.021924,Units=km
new line.TR12154318 bus1=BMT4750638B.1.0,bus2=BMT162335976.1.0,Phases=1,Linecode=CAB202_3_1,Length=0.247635,Units=km
new line.TR12154319 bus1=BMT162335976.1.0,bus2=BMT162335977.1.0,Phases=1,Linecode=CAB202_3_1,Length=0.034192,Units=km
new line.TR12154320 bus1=BMT162335976.1.0,bus2=BMT8749966B.1.0,Phases=1,Linecode=CAB202_3_1,Length=0.082846,Units=km
new line.TR12154321 bus1=BMT8749966B.1.0,bus2=BMT8749967B.1.0,Phases=1,Linecode=CAB202_3_1,Length=0.140129,Units=km
new line.TR12154322 bus1=BMT8749967B.1.0,bus2=BMT8749968B.1.0,Phases=1,Linecode=CAB202_3_1,Length=0.149127,Units=km
new line.TR12154323 bus1=BMT8749968B.1.0,bus2=BMT8749969B.1.0,Phases=1,Linecode=CAB202_3_1,Length=0.144496,Units=km
new line.TR12154324 bus1=BMT8749969B.1.0,bus2=BMT8749971B.1.0,Phases=1,Linecode=CAB202_3_1,Length=0.09898,Units=km
new line.TR12154326 bus1=BMT8749971B.1.0,bus2=BMT8749972B.1.0,Phases=1,Linecode=CAB202_3_1,Length=0.195497,Units=km
new line.TR12150149 bus1=BMT8745960B.1.2.3.0,bus2=BMT8745961B.1.2.3.0,Phases=3,Linecode=CABA06_3_3,Length=0.007613,Units=km
new line.TR12150150 bus1=BMT8745961B.1.2.3.0,bus2=BMT155935596.1.2.3.0,Phases=3,Linecode=CABA06_3_3,Length=0.045677,Units=km
new line.TR12150153 bus1=BMT155935595.1.2.3.0,bus2=BMT8745949B.1.2.3.0,Phases=3,Linecode=CABA06_3_3,Length=0.038895,Units=km
new line.TR12150154 bus1=BMT8745949B.1.2.3.0,bus2=BMT8745950B.1.2.3.0,Phases=3,Linecode=CABA06_3_3,Length=0.041869,Units=km
new line.TR12150155 bus1=BMT8745950B.1.2.3.0,bus2=BMT8745951B.1.2.3.0,Phases=3,Linecode=CABA06_3_3,Length=0.040798,Units=km
new line.TR12150156 bus1=BMT8745951B.1.2.3.0,bus2=BMT8745953B.1.2.3.0,Phases=3,Linecode=CABA06_3_3,Length=0.039473,Units=km
new line.TR12150157 bus1=BMT8745953B.1.2.3.0,bus2=BMT155935597.1.2.3.0,Phases=3,Linecode=CABA06_3_3,Length=0.039473,Units=km
new line.TR12150158 bus1=BMT155935595.1.2.3.0,bus2=BMT8745948B.1.2.3.0,Phases=3,Linecode=CABA06_3_3,Length=0.005384,Units=km
new line.TR12150159 bus1=BMT8745948B.1.2.3.0,bus2=BMT155935598.1.2.3.0,Phases=3,Linecode=CABA06_3_3,Length=0.02599,Units=km
new line.TR12183809 bus1=BMT3148093B.1.0,bus2=BMT155936426.1.0,Phases=1,Linecode=CAB202_3_1,Length=0.128434,Units=km
new line.TR12183810 bus1=BMT155936426.1.0,bus2=BMT155936427.1.0,Phases=1,Linecode=CAB202_3_1,Length=0.082643,Units=km
new line.TR12183811 bus1=BMT155936426.1.0,bus2=BMT8783399B.1.0,Phases=1,Linecode=CAB202_3_1,Length=0.080881,Units=km
new line.TR12183812 bus1=BMT8783399B.1.0,bus2=BMT8783400B.1.0,Phases=1,Linecode=CAB202_3_1,Length=0.125459,Units=km
new line.TR12183813 bus1=BMT8783400B.1.0,bus2=BMT8783401B.1.0,Phases=1,Linecode=CAB202_3_1,Length=0.148804,Units=km
new line.TR12183814 bus1=BMT8783401B.1.0,bus2=BMT8783402B.1.0,Phases=1,Linecode=CAB202_3_1,Length=0.053366,Units=km
new line.TR12183815 bus1=BMT8783402B.1.0,bus2=BMT8783406B.1.0,Phases=1,Linecode=CAB202_3_1,Length=0.117433,Units=km
new line.TR12183816 bus1=BMT8783406B.1.0,bus2=BMT8783407B.1.0,Phases=1,Linecode=CAB202_3_1,Length=0.089514,Units=km
new line.TR12183817 bus1=BMT8783407B.1.0,bus2=BMT155936428.1.0,Phases=1,Linecode=CAB202_3_1,Length=0.119026,Units=km
new line.TR12249429 bus1=BMT3537937B.1.0,bus2=BMT158521533.1.0,Phases=1,Linecode=CAB202_3_1,Length=0.057956,Units=km
new line.TR12197208 bus1=BMT161793967.1.0,bus2=BMT8798620B.1.0,Phases=1,Linecode=CAB202_3_1,Length=0.026914,Units=km
new line.TR12197216 bus1=BMT8798620B.1.0,bus2=BMT8798615B.1.0,Phases=1,Linecode=CAB202_3_1,Length=0.375262,Units=km
new line.TR12197225 bus1=BMT8798615B.1.0,bus2=BMT161793968.1.0,Phases=1,Linecode=CAB202_3_1,Length=0.177963,Units=km
new line.TR12240038 bus1=BMT155936948.1.0,bus2=BMT8841796B.1.0,Phases=1,Linecode=CAB202_3_1,Length=0.083211,Units=km
new line.TR12240042 bus1=BMT8841796B.1.0,bus2=BMT8841798B.1.0,Phases=1,Linecode=CAB202_3_1,Length=0.119962,Units=km
new line.TR12240044 bus1=BMT8841798B.1.0,bus2=BMT8841801B.1.0,Phases=1,Linecode=CAB202_3_1,Length=0.118962,Units=km
new line.TR12240046 bus1=BMT8841801B.1.0,bus2=BMT8841803B.1.0,Phases=1,Linecode=CAB202_3_1,Length=0.048983,Units=km
new line.TR12240048 bus1=BMT8841803B.1.0,bus2=BMT155936949.1.0,Phases=1,Linecode=CAB202_3_1,Length=0.547811,Units=km
new line.TR12241218 bus1=BMT155936333.1.0,bus2=BMT155936334.1.0,Phases=1,Linecode=CAB202_3_1,Length=0.019714,Units=km
new line.TR12241219 bus1=BMT155936334.1.0,bus2=BMT3158390B.1.0,Phases=1,Linecode=CAB202_3_1,Length=0.160804,Units=km
new line.TR12241229 bus1=BMT5137864B.1.0,bus2=BMT164173896.1.0,Phases=1,Linecode=CAB202_3_1,Length=0.088548,Units=km
new line.TR12241230 bus1=BMT164173896.1.0,bus2=BMT164173897.1.0,Phases=1,Linecode=CABA06_3_1,Length=0.029668,Units=km
new line.TR12241263 bus1=BMT164173897.1.0,bus2=BMT8843020B.1.0,Phases=1,Linecode=CABA06_3_1,Length=0.023989,Units=km
new line.TR12241264 bus1=BMT8843020B.1.0,bus2=BMT8843024B.1.0,Phases=1,Linecode=CABA06_3_1,Length=0.026988,Units=km
new line.TR12241265 bus1=BMT8843024B.1.0,bus2=BMT164173898.1.0,Phases=1,Linecode=CABA06_3_1,Length=0.023184,Units=km
new line.TR12241266 bus1=BMT164173898.1.0,bus2=BMT8843035B.1.0,Phases=1,Linecode=CABA06_3_1,Length=0.025698,Units=km
new line.TR12241267 bus1=BMT8843035B.1.0,bus2=BMT8843048B.1.0,Phases=1,Linecode=CABA06_3_1,Length=0.028271,Units=km
new line.TR12241268 bus1=BMT8843048B.1.0,bus2=BMT8843051B.1.0,Phases=1,Linecode=CABA06_3_1,Length=0.029261,Units=km
new line.TR12241269 bus1=BMT8843051B.1.0,bus2=BMT164173899.1.0,Phases=1,Linecode=CABA06_3_1,Length=0.02432,Units=km
new line.TR12165618 bus1=BMT155935984.1.0,bus2=BMT155935985.1.0,Phases=1,Linecode=CAB202_3_1,Length=0.033414,Units=km
new line.TR12165619 bus1=BMT155935985.1.0,bus2=BMT155935986.1.0,Phases=1,Linecode=CAB202_3_1,Length=0.066828,Units=km
new line.TR12165629 bus1=BMT155935985.1.0,bus2=BMT8763107B.1.0,Phases=1,Linecode=CAB202_3_1,Length=0.243681,Units=km
new line.TR12165631 bus1=BMT8763107B.1.0,bus2=BMT8763108B.1.0,Phases=1,Linecode=CAB202_3_1,Length=0.184187,Units=km
new line.TR12165632 bus1=BMT8763108B.1.0,bus2=BMT8763109B.1.0,Phases=1,Linecode=CAB202_3_1,Length=0.598993,Units=km
new line.TR12165633 bus1=BMT8763109B.1.0,bus2=BMT8763110B.1.0,Phases=1,Linecode=CAB202_3_1,Length=0.284932,Units=km
new line.TR12165634 bus1=BMT8763110B.1.0,bus2=BMT8763111B.1.0,Phases=1,Linecode=CAB202_3_1,Length=0.065407,Units=km
new line.TR12165635 bus1=BMT8763111B.1.0,bus2=BMT155935987.1.0,Phases=1,Linecode=CAB202_3_1,Length=0.064641,Units=km
new line.TR12165676 bus1=BMT155936515.1.0,bus2=BMT4978152B.1.0,Phases=1,Linecode=CAB202_3_1,Length=0.112878,Units=km
new line.TR12165684 bus1=BMT162677758.1.0,bus2=BMT8763155B.1.0,Phases=1,Linecode=CAB202_3_1,Length=0.079645,Units=km
new line.TR12165685 bus1=BMT8763155B.1.0,bus2=BMT162677760.1.0,Phases=1,Linecode=CAB202_3_1,Length=0.079812,Units=km
new line.TR12237380 bus1=BMT161256204.1.0,bus2=BMT8838999B.1.0,Phases=1,Linecode=CAB202_3_1,Length=0.196261,Units=km
new line.TR12237383 bus1=BMT8838999B.1.0,bus2=BMT8839014B.1.0,Phases=1,Linecode=CAB202_3_1,Length=0.120443,Units=km
new line.TR12237395 bus1=BMT8839014B.1.0,bus2=BMT8839015B.1.0,Phases=1,Linecode=CAB202_3_1,Length=0.121352,Units=km
new line.TR12237398 bus1=BMT8839015B.1.0,bus2=BMT8839016B.1.0,Phases=1,Linecode=CAB202_3_1,Length=0.258498,Units=km
new line.TR12237399 bus1=BMT8839016B.1.0,bus2=BMT8839000B.1.0,Phases=1,Linecode=CAB202_3_1,Length=0.129183,Units=km
new line.TR12237412 bus1=BMT8839000B.1.0,bus2=BMT8839036B.1.0,Phases=1,Linecode=CAB202_3_1,Length=0.144015,Units=km
new line.TR12237413 bus1=BMT8839036B.1.0,bus2=BMT8839037B.1.0,Phases=1,Linecode=CAB202_3_1,Length=0.129404,Units=km
new line.TR12237414 bus1=BMT8839037B.1.0,bus2=BMT8839038B.1.0,Phases=1,Linecode=CAB202_3_1,Length=0.247908,Units=km
new line.TR12155805 bus1=BMT155935848.1.0,bus2=BMT8751570B.1.0,Phases=1,Linecode=CAB202_3_1,Length=0.088729,Units=km
new line.TR12155807 bus1=BMT8751570B.1.0,bus2=BMT8751568B.1.0,Phases=1,Linecode=CAB202_3_1,Length=0.091882,Units=km
new line.TR12155809 bus1=BMT8751568B.1.0,bus2=BMT155935849.1.0,Phases=1,Linecode=CAB202_3_1,Length=0.092267,Units=km
new line.TR12155815 bus1=BMT155935849.1.0,bus2=BMT8751567B.1.0,Phases=1,Linecode=CAB202_3_1,Length=0.150516,Units=km
new line.TR12155817 bus1=BMT8751567B.1.0,bus2=BMT163815016.1.0,Phases=1,Linecode=CAB202_3_1,Length=0.137998,Units=km
new line.TR12155820 bus1=BMT8751531B.1.0,bus2=BMT8751533B.1.0,Phases=1,Linecode=CAB202_3_1,Length=0.10211,Units=km
new line.TR12155829 bus1=BMT8751533B.1.0,bus2=BMT155936058.1.0,Phases=1,Linecode=CAB202_3_1,Length=0.094825,Units=km
new line.TR12155843 bus1=BMT155936058.1.0,bus2=BMT155936059.1.0,Phases=1,Linecode=CAB202_3_1,Length=0.179656,Units=km
new line.TR12155846 bus1=BMT155936058.1.0,bus2=BMT8751541B.1.0,Phases=1,Linecode=CAB202_3_1,Length=0.115895,Units=km
new line.TR12155854 bus1=BMT155936057.1.0,bus2=BMT8751756B.1.0,Phases=1,Linecode=CAB202_3_1,Length=0.09896,Units=km
new line.TR12155860 bus1=BMT8751756B.1.0,bus2=BMT8751531B.1.0,Phases=1,Linecode=CAB202_3_1,Length=0.102647,Units=km
new line.TR12155868 bus1=BMT8751541B.1.0,bus2=BMT8751783B.1.0,Phases=1,Linecode=CAB202_3_1,Length=0.10923,Units=km
new line.TR12155869 bus1=BMT8751783B.1.0,bus2=BMT155936060.1.0,Phases=1,Linecode=CAB202_3_1,Length=0.103581,Units=km
new line.TR12186431 bus1=BMT155935663.1.0,bus2=BMT155935665.1.0,Phases=1,Linecode=CAB102_3_1,Length=0.038514,Units=km
new line.TR12186586 bus1=BMT155935607.1.2.3.0,bus2=BMT155935608.1.2.3.0,Phases=3,Linecode=CAB103_3_3,Length=0.051458,Units=km
new line.TR12186587 bus1=BMT155935608.1.2.3.0,bus2=BMT155935609.1.2.3.0,Phases=3,Linecode=CAB103_3_3,Length=0.058646,Units=km
new line.TR12186588 bus1=BMT155935609.1.2.3.0,bus2=BMT3763309.1.2.3.0,Phases=3,Linecode=CAB203_3_3,Length=0.023315,Units=km
new line.TR12251723 bus1=BMT155936830.1.0,bus2=BMT155936831.1.0,Phases=1,Linecode=CAB202_3_1,Length=0.018781,Units=km
new line.TR12251724 bus1=BMT155936832.1.0,bus2=BMT3755707B.1.0,Phases=1,Linecode=CAB202_3_1,Length=0.294273,Units=km
new line.TR12154327 bus1=BMT8749972B.1.0,bus2=BMT8749973B.1.0,Phases=1,Linecode=CAB202_3_1,Length=0.091363,Units=km
new line.TR12154328 bus1=BMT8749973B.1.0,bus2=BMT8749975B.1.0,Phases=1,Linecode=CAB202_3_1,Length=0.084777,Units=km
new line.TR12154329 bus1=BMT8749975B.1.0,bus2=BMT8749976B.1.0,Phases=1,Linecode=CAB202_3_1,Length=0.076186,Units=km
new line.TR12154330 bus1=BMT8749976B.1.0,bus2=BMT162335978.1.0,Phases=1,Linecode=CAB202_3_1,Length=0.092099,Units=km
new line.TR12195917 bus1=BMT162065419.1.0,bus2=BMT8797195B.1.0,Phases=1,Linecode=CAB202_3_1,Length=0.060575,Units=km
new line.TR12195918 bus1=BMT8797195B.1.0,bus2=BMT162065420.1.0,Phases=1,Linecode=CAB202_3_1,Length=0.013595,Units=km
new line.TR12195921 bus1=BMT8797187B.1.0,bus2=BMT8797189B.1.0,Phases=1,Linecode=CAB202_3_1,Length=0.157568,Units=km
new line.TR12195922 bus1=BMT8797189B.1.0,bus2=BMT8797190B.1.0,Phases=1,Linecode=CAB202_3_1,Length=0.12413,Units=km
new line.TR12195923 bus1=BMT8797190B.1.0,bus2=BMT8797191B.1.0,Phases=1,Linecode=CAB202_3_1,Length=0.137933,Units=km
new line.TR12195924 bus1=BMT8797191B.1.0,bus2=BMT8797192B.1.0,Phases=1,Linecode=CAB202_3_1,Length=0.153417,Units=km
new line.TR12195925 bus1=BMT162065419.1.0,bus2=BMT8797198B.1.0,Phases=1,Linecode=CAB202_3_1,Length=0.067145,Units=km
new line.TR12195926 bus1=BMT8797187B.1.0,bus2=BMT8797198B.1.0,Phases=1,Linecode=CAB202_3_1,Length=0.23102,Units=km
new line.TR12195927 bus1=BMT8797192B.1.0,bus2=BMT162065421.1.0,Phases=1,Linecode=CAB202_3_1,Length=0.274449,Units=km
new line.TR12266568 bus1=BMT163043666.1.0,bus2=BMT8870120B.1.0,Phases=1,Linecode=CAB202_3_1,Length=0.104615,Units=km
new line.TR12266570 bus1=BMT8870120B.1.0,bus2=BMT8870122B.1.0,Phases=1,Linecode=CAB202_3_1,Length=0.130166,Units=km
new line.TR12266571 bus1=BMT8870122B.1.0,bus2=BMT8870123B.1.0,Phases=1,Linecode=CAB202_3_1,Length=0.123919,Units=km
new line.TR12266572 bus1=BMT8870123B.1.0,bus2=BMT8870124B.1.0,Phases=1,Linecode=CAB202_3_1,Length=0.124284,Units=km
new line.TR12266573 bus1=BMT8870124B.1.0,bus2=BMT8870128B.1.0,Phases=1,Linecode=CAB202_3_1,Length=0.071366,Units=km
new line.TR12266574 bus1=BMT8870128B.1.0,bus2=BMT8870129B.1.0,Phases=1,Linecode=CAB202_3_1,Length=0.079563,Units=km
new line.TR12189781 bus1=BMT2432854B.1.2.3.0,bus2=BMT161352780.1.2.3.0,Phases=3,Linecode=CAB203_3_3,Length=0.079044,Units=km
new line.TR12189782 bus1=BMT161352780.1.2.3.0,bus2=BMT161352782.1.2.3.0,Phases=3,Linecode=CAB203_3_3,Length=0.055205,Units=km
new line.TR12189786 bus1=BMT161352780.1.2.3.0,bus2=BMT161352783.1.2.3.0,Phases=3,Linecode=CAB103_3_3,Length=0.070492,Units=km
new line.TR12256063 bus1=BMT5327634B.1.0,bus2=BMT160758835.1.0,Phases=1,Linecode=CAB202_3_1,Length=0.034112,Units=km
new line.TR12256064 bus1=BMT160758835.1.0,bus2=BMT160758836.1.0,Phases=1,Linecode=CAB202_3_1,Length=0.049234,Units=km
new line.TR12256291 bus1=BMT153276403.1.0,bus2=BMT153276405.1.0,Phases=1,Linecode=CAB202_3_1,Length=0.141973,Units=km
new line.TR12257281 bus1=BMT162525422.1.0,bus2=BMT162525423.1.0,Phases=1,Linecode=CAB202_3_1,Length=0.130746,Units=km
new line.TR12257282 bus1=BMT162525423.1.0,bus2=BMT8859107B.1.0,Phases=1,Linecode=CAB202_3_1,Length=0.122227,Units=km
new line.TR12257283 bus1=BMT8859107B.1.0,bus2=BMT8859109B.1.0,Phases=1,Linecode=CAB202_3_1,Length=0.137991,Units=km
new line.TR12257284 bus1=BMT8859109B.1.0,bus2=BMT162525424.1.0,Phases=1,Linecode=CAB202_3_1,Length=0.155166,Units=km
new line.TR12257285 bus1=BMT162525424.1.0,bus2=BMT162525426.1.0,Phases=1,Linecode=CAB103_3_1,Length=0.053012,Units=km
new line.TR12257324 bus1=BMT162524980.1.0,bus2=BMT8859156B.1.0,Phases=1,Linecode=CAB202_3_1,Length=0.211923,Units=km
new line.TR12257325 bus1=BMT8859156B.1.0,bus2=BMT8859157B.1.0,Phases=1,Linecode=CAB202_3_1,Length=0.131306,Units=km
new line.TR12257326 bus1=BMT8859157B.1.0,bus2=BMT8859158B.1.0,Phases=1,Linecode=CAB202_3_1,Length=0.155212,Units=km
new line.TR12257328 bus1=BMT8859158B.1.0,bus2=BMT162524981.1.0,Phases=1,Linecode=CAB202_3_1,Length=0.131893,Units=km
new line.TR12258067 bus1=BMT153334254.1.0,bus2=BMT153334256.1.0,Phases=1,Linecode=CAB103_3_1,Length=0.038029,Units=km
new line.TR12259135 bus1=BMT4712264B.1.2.3.0,bus2=BMT8861370B.1.2.3.0,Phases=3,Linecode=CAB202_3_3,Length=0.106181,Units=km
new line.TR12259136 bus1=BMT8861370B.1.2.3.0,bus2=BMT8861364B.1.2.3.0,Phases=3,Linecode=CAB202_3_3,Length=0.117605,Units=km
new line.TR12259139 bus1=BMT8861364B.1.2.3.0,bus2=BMT165916852.1.2.3.0,Phases=3,Linecode=CAB202_3_3,Length=0.132396,Units=km
new line.TR12110356 bus1=BMT163965418.1.0,bus2=BMT8702658B.1.0,Phases=1,Linecode=CAB202_3_1,Length=0.107408,Units=km
new line.TR12110357 bus1=BMT8702658B.1.0,bus2=BMT8702659B.1.0,Phases=1,Linecode=CAB202_3_1,Length=0.104417,Units=km
new line.TR12110358 bus1=BMT8702659B.1.0,bus2=BMT163965419.1.0,Phases=1,Linecode=CAB202_3_1,Length=0.070863,Units=km
new line.TR12143125 bus1=BMT149279214.1.0,bus2=BMT8737807B.1.0,Phases=1,Linecode=CAB202_3_1,Length=0.149974,Units=km
new line.TR12143127 bus1=BMT8737807B.1.0,bus2=BMT8737808B.1.0,Phases=1,Linecode=CAB202_3_1,Length=0.166634,Units=km
new line.TR12143132 bus1=BMT8737808B.1.0,bus2=BMT8737809B.1.0,Phases=1,Linecode=CAB202_3_1,Length=0.11921,Units=km
new line.TR12143133 bus1=BMT8737809B.1.0,bus2=BMT8737810B.1.0,Phases=1,Linecode=CAB202_3_1,Length=0.140543,Units=km
new line.TR12143134 bus1=BMT8737810B.1.0,bus2=BMT149279215.1.0,Phases=1,Linecode=CAB202_3_1,Length=0.09176,Units=km
new line.TR12143861 bus1=BMT164240045.1.0,bus2=BMT8738608B.1.0,Phases=1,Linecode=CAB202_3_1,Length=0.092127,Units=km
new line.TR12143862 bus1=BMT8738608B.1.0,bus2=BMT8738610B.1.0,Phases=1,Linecode=CAB202_3_1,Length=0.05498,Units=km
new line.TR12143863 bus1=BMT8738610B.1.0,bus2=BMT8738611B.1.0,Phases=1,Linecode=CAB202_3_1,Length=0.297867,Units=km
new line.TR12143864 bus1=BMT8738611B.1.0,bus2=BMT164240047.1.0,Phases=1,Linecode=CAB202_3_1,Length=0.221901,Units=km
new line.TR12144845 bus1=BMT149336269.1.0,bus2=BMT4312403B.1.0,Phases=1,Linecode=CAB202_3_1,Length=0.114475,Units=km
new line.TR12307738 bus1=BMT165387287.1.0,bus2=BMT8909627B.1.0,Phases=1,Linecode=CAB202_3_1,Length=0.130543,Units=km
new line.TR12307741 bus1=BMT8909627B.1.0,bus2=BMT8909628B.1.0,Phases=1,Linecode=CAB202_3_1,Length=0.16622,Units=km
new line.TR12307742 bus1=BMT8909628B.1.0,bus2=BMT8909629B.1.0,Phases=1,Linecode=CAB202_3_1,Length=0.314958,Units=km
new line.TR12307743 bus1=BMT8909629B.1.0,bus2=BMT165387288.1.0,Phases=1,Linecode=CAB202_3_1,Length=0.077376,Units=km
new line.TR12307744 bus1=BMT165387288.1.0,bus2=BMT165387289.1.0,Phases=1,Linecode=CAB202_3_1,Length=0.09831,Units=km
new line.TR12309648 bus1=BMT165916839.1.0,bus2=BMT165916841.1.0,Phases=1,Linecode=CAB202_3_1,Length=0.210194,Units=km
new line.TR12311174 bus1=BMT158524326.1.0,bus2=BMT8913502B.1.0,Phases=1,Linecode=CAB202_3_1,Length=0.098318,Units=km
new line.TR12311175 bus1=BMT8913502B.1.0,bus2=BMT8913503B.1.0,Phases=1,Linecode=CAB202_3_1,Length=0.101208,Units=km
new line.TR12311176 bus1=BMT8913503B.1.0,bus2=BMT8913504B.1.0,Phases=1,Linecode=CAB202_3_1,Length=0.113681,Units=km
new line.TR12311177 bus1=BMT8913504B.1.0,bus2=BMT158524328.1.0,Phases=1,Linecode=CAB202_3_1,Length=0.116258,Units=km
new line.TR12346577 bus1=BMT157130411.1.2.3.0,bus2=BMT163767891.1.2.3.0,Phases=3,Linecode=CABA08_3_3,Length=0.051422,Units=km
new line.TR12346581 bus1=BMT3536796B.1.2.3.0,bus2=BMT8949869B.1.2.3.0,Phases=3,Linecode=CABA08_3_3,Length=0.049648,Units=km
new line.TR12346582 bus1=BMT8949869B.1.2.3.0,bus2=BMT160236545.1.2.3.0,Phases=3,Linecode=CABA08_3_3,Length=0.050332,Units=km
new line.TR12346618 bus1=BMT749116B.1.2.3.0,bus2=BMT160236546.1.2.3.0,Phases=3,Linecode=CABA08_3_3,Length=0.019229,Units=km
new line.TR12346619 bus1=BMT160236546.1.2.3.0,bus2=BMT8949894B.1.2.3.0,Phases=3,Linecode=CABA08_3_3,Length=0.0434,Units=km
new line.TR12346620 bus1=BMT8949894B.1.2.3.0,bus2=BMT4737856B.1.2.3.0,Phases=3,Linecode=CABA08_3_3,Length=0.051989,Units=km
new line.TR12346621 bus1=BMT4737856B.1.2.3.0,bus2=BMT8949899B.1.2.3.0,Phases=3,Linecode=CABA08_3_3,Length=0.050428,Units=km
new line.TR12346622 bus1=BMT8949899B.1.2.3.0,bus2=BMT8949900B.1.2.3.0,Phases=3,Linecode=CABA08_3_3,Length=0.039809,Units=km
new line.TR12346623 bus1=BMT8949900B.1.2.3.0,bus2=BMT4737863B.1.2.3.0,Phases=3,Linecode=CABA08_3_3,Length=0.040444,Units=km
new line.TR12346630 bus1=BMT4737863B.1.2.3.0,bus2=BMT8949924B.1.2.3.0,Phases=3,Linecode=CABA08_3_3,Length=0.050428,Units=km
new line.TR12346631 bus1=BMT8949924B.1.2.3.0,bus2=BMT8949935B.1.2.3.0,Phases=3,Linecode=CABA08_3_3,Length=0.050309,Units=km
new line.TR12346632 bus1=BMT8949935B.1.2.3.0,bus2=BMT4737870B.1.2.3.0,Phases=3,Linecode=CABA08_3_3,Length=0.055951,Units=km
new line.TR12346637 bus1=BMT4737870B.1.2.3.0,bus2=BMT8949960B.1.2.3.0,Phases=3,Linecode=CABA08_3_3,Length=0.049022,Units=km
new line.TR12346638 bus1=BMT8949960B.1.2.3.0,bus2=BMT8949963B.1.2.3.0,Phases=3,Linecode=CABA08_3_3,Length=0.051205,Units=km
new line.TR12346640 bus1=BMT8949963B.1.2.3.0,bus2=BMT4737877B.1.2.3.0,Phases=3,Linecode=CABA08_3_3,Length=0.051989,Units=km
new line.TR12266576 bus1=BMT8870129B.1.0,bus2=BMT8870130B.1.0,Phases=1,Linecode=CAB202_3_1,Length=0.079591,Units=km
new line.TR12266577 bus1=BMT8870130B.1.0,bus2=BMT163043668.1.0,Phases=1,Linecode=CAB202_3_1,Length=0.056387,Units=km
new line.TR12266578 bus1=BMT163043668.1.0,bus2=BMT163043669.1.0,Phases=1,Linecode=CAB202_3_1,Length=0.384231,Units=km
new line.TR12288917 bus1=BMT162915512.1.0,bus2=BMT8891102B.1.0,Phases=1,Linecode=CAB202_3_1,Length=0.117421,Units=km
new line.TR12288918 bus1=BMT8891102B.1.0,bus2=BMT8891104B.1.0,Phases=1,Linecode=CAB202_3_1,Length=0.071827,Units=km
new line.TR12288919 bus1=BMT8891104B.1.0,bus2=BMT8891106B.1.0,Phases=1,Linecode=CAB202_3_1,Length=0.139257,Units=km
new line.TR12288920 bus1=BMT8891106B.1.0,bus2=BMT162915513.1.0,Phases=1,Linecode=CAB202_3_1,Length=0.100668,Units=km
new line.TR12323117 bus1=BMT158521534.1.0,bus2=BMT155635500.1.0,Phases=1,Linecode=CAB202_3_1,Length=0.084881,Units=km
new line.TR12323118 bus1=BMT158517254.1.0,bus2=BMT8923598B.1.0,Phases=1,Linecode=CAB202_3_1,Length=0.129312,Units=km
new line.TR12323119 bus1=BMT8923598B.1.0,bus2=BMT158517255.1.0,Phases=1,Linecode=CAB202_3_1,Length=0.183277,Units=km
new line.TR12323120 bus1=BMT158517255.1.0,bus2=BMT158517256.1.0,Phases=1,Linecode=CAB202_3_1,Length=0.131727,Units=km
new line.TR12323473 bus1=BMT158517255.1.0,bus2=BMT158517257.1.0,Phases=1,Linecode=CAB202_3_1,Length=0.149656,Units=km
new line.TR12339420 bus1=BMT156695218.1.0,bus2=BMT156695220.1.0,Phases=1,Linecode=CAB202_3_1,Length=0.105961,Units=km
new line.TR12340117 bus1=BMT156274542.1.0,bus2=BMT8942815B.1.0,Phases=1,Linecode=CAB202_3_1,Length=0.122924,Units=km
new line.TR12340118 bus1=BMT8942815B.1.0,bus2=BMT156274544.1.0,Phases=1,Linecode=CAB202_3_1,Length=0.12556,Units=km
new line.TR12340897 bus1=BMT8943668B.1.2.3.0,bus2=BMT749116B.1.2.3.0,Phases=3,Linecode=CABA08_3_3,Length=0.056074,Units=km
new line.TR12341186 bus1=BMT8943952B.1.2.3.0,bus2=BMT8943668B.1.2.3.0,Phases=3,Linecode=CABA08_3_3,Length=0.049899,Units=km
new line.TR12341196 bus1=BMT8943962B.1.2.3.0,bus2=BMT8943961B.1.2.3.0,Phases=3,Linecode=CABA08_3_3,Length=0.051087,Units=km
new line.TR12341200 bus1=BMT8943963B.1.2.3.0,bus2=BMT8943962B.1.2.3.0,Phases=3,Linecode=CABA08_3_3,Length=0.048701,Units=km
new line.TR12249430 bus1=BMT3537958B.1.0,bus2=BMT158521533.1.0,Phases=1,Linecode=CAB202_3_1,Length=0.068389,Units=km
new line.TR12249431 bus1=BMT158521533.1.0,bus2=BMT158521535.1.0,Phases=1,Linecode=CAB202_3_1,Length=0.109643,Units=km
new line.TR12249432 bus1=BMT158521535.1.0,bus2=BMT158521536.1.0,Phases=1,Linecode=CAB103_3_1,Length=0.056838,Units=km
new line.TR12317633 bus1=BMT157521426.1.0,bus2=BMT8919029B.1.0,Phases=1,Linecode=CAB202_3_1,Length=0.289545,Units=km
new line.TR12317634 bus1=BMT8919029B.1.0,bus2=BMT157521428.1.0,Phases=1,Linecode=CAB202_3_1,Length=0.174939,Units=km
new line.TR12317840 bus1=BMT165916852.1.2.3.0,bus2=BMT165916853.1.2.3.0,Phases=3,Linecode=CAB202_3_3,Length=0.117605,Units=km
new line.TR12317843 bus1=BMT165916853.1.0,bus2=BMT155937118.1.0,Phases=1,Linecode=CAB103_3_1,Length=0.022197,Units=km
new line.TR12317853 bus1=BMT8919218B.1.0,bus2=BMT156853234.1.0,Phases=1,Linecode=CAB202_3_1,Length=0.171576,Units=km
new line.TR12318927 bus1=BMT156348590.1.0,bus2=BMT156348591.1.0,Phases=1,Linecode=CAB202_3_1,Length=0.156596,Units=km
new line.TR12318928 bus1=BMT156348591.1.0,bus2=BMT156348592.1.0,Phases=1,Linecode=CAB202_3_1,Length=0.01361,Units=km
new line.TR12319150 bus1=BMT156348591.1.0,bus2=BMT8920210B.1.0,Phases=1,Linecode=CAB202_3_1,Length=0.072529,Units=km
new line.TR12319153 bus1=BMT8920210B.1.0,bus2=BMT8920216B.1.0,Phases=1,Linecode=CAB202_3_1,Length=0.064375,Units=km
new line.TR12319156 bus1=BMT8920216B.1.0,bus2=BMT8920222B.1.0,Phases=1,Linecode=CAB202_3_1,Length=0.073076,Units=km
new line.TR12319161 bus1=BMT8920222B.1.0,bus2=BMT8920287B.1.0,Phases=1,Linecode=CAB202_3_1,Length=0.061454,Units=km
new line.TR12319162 bus1=BMT8920287B.1.0,bus2=BMT8920290B.1.0,Phases=1,Linecode=CAB202_3_1,Length=0.225535,Units=km
new line.TR12319167 bus1=BMT8920290B.1.0,bus2=BMT156348593.1.0,Phases=1,Linecode=CAB202_3_1,Length=0.034143,Units=km
new line.TR12356943 bus1=BMT158835530.1.0,bus2=BMT158835532.1.0,Phases=1,Linecode=CAB103_3_1,Length=0.040474,Units=km
new line.TR12356968 bus1=BMT160090023.1.0,bus2=BMT3705552B.1.0,Phases=1,Linecode=CAB202_3_1,Length=0.158282,Units=km
new line.TR12356983 bus1=BMT160090022.1.2.3.0,bus2=BMT8950563B.1.2.3.0,Phases=3,Linecode=CABA08_3_3,Length=0.037429,Units=km
new line.TR12341201 bus1=BMT160236547.1.2.3.0,bus2=BMT8943964B.1.2.3.0,Phases=3,Linecode=CABA08_3_3,Length=0.040652,Units=km
new line.TR12341202 bus1=BMT8943964B.1.2.3.0,bus2=BMT8943963B.1.2.3.0,Phases=3,Linecode=CABA08_3_3,Length=0.04078,Units=km
new line.TR12341206 bus1=BMT8943965B.1.2.3.0,bus2=BMT160236547.1.2.3.0,Phases=3,Linecode=CABA08_3_3,Length=0.048355,Units=km
new line.TR12341208 bus1=BMT8943966B.1.2.3.0,bus2=BMT8943965B.1.2.3.0,Phases=3,Linecode=CABA08_3_3,Length=0.045523,Units=km
new line.TR12341212 bus1=BMT8943967B.1.2.3.0,bus2=BMT8943966B.1.2.3.0,Phases=3,Linecode=CABA08_3_3,Length=0.049629,Units=km
new line.TR12341214 bus1=BMT8943968B.1.2.3.0,bus2=BMT8943967B.1.2.3.0,Phases=3,Linecode=CABA08_3_3,Length=0.049629,Units=km
new line.TR12341216 bus1=BMT159655249.1.2.3.0,bus2=BMT8943969B.1.2.3.0,Phases=3,Linecode=CABA08_3_3,Length=0.029263,Units=km
new line.TR12341217 bus1=BMT8943969B.1.2.3.0,bus2=BMT8943968B.1.2.3.0,Phases=3,Linecode=CABA08_3_3,Length=0.041577,Units=km
new line.TR12341223 bus1=BMT8943972B.1.2.3.0,bus2=BMT159655249.1.2.3.0,Phases=3,Linecode=CABA08_3_3,Length=0.053914,Units=km
new line.TR12341224 bus1=BMT156311983.1.2.3.0,bus2=BMT8943974B.1.2.3.0,Phases=3,Linecode=CABA08_3_3,Length=0.055422,Units=km
new line.TR12341225 bus1=BMT8943974B.1.2.3.0,bus2=BMT8943972B.1.2.3.0,Phases=3,Linecode=CABA08_3_3,Length=0.034352,Units=km
new line.TR12341231 bus1=BMT2427625B.1.2.3.0,bus2=BMT8943978B.1.2.3.0,Phases=3,Linecode=CABA08_3_3,Length=0.049185,Units=km
new line.TR12341232 bus1=BMT8943978B.1.2.3.0,bus2=BMT160086688.1.2.3.0,Phases=3,Linecode=CABA08_3_3,Length=0.030402,Units=km
new line.TR12341233 bus1=BMT158166892.1.2.3.0,bus2=BMT8943983B.1.2.3.0,Phases=3,Linecode=CABA08_3_3,Length=0.032003,Units=km
new line.TR12341235 bus1=BMT8943983B.1.2.3.0,bus2=BMT8943984B.1.2.3.0,Phases=3,Linecode=CABA08_3_3,Length=0.037201,Units=km
new line.TR12341236 bus1=BMT8943984B.1.2.3.0,bus2=BMT2427625B.1.2.3.0,Phases=3,Linecode=CABA08_3_3,Length=0.048807,Units=km
new line.TR12341241 bus1=BMT158166892.1.2.3.0,bus2=BMT156311910.1.2.3.0,Phases=3,Linecode=CAB203_3_3,Length=0.049377,Units=km
new line.TR12341242 bus1=BMT156311913.1.2.3.0,bus2=BMT156311914.1.2.3.0,Phases=3,Linecode=CAB203_3_3,Length=0.237983,Units=km
new line.TR12341243 bus1=BMT158166892.1.2.3.0,bus2=BMT8943993B.1.2.3.0,Phases=3,Linecode=CABA08_3_3,Length=0.035497,Units=km
new line.TR12341345 bus1=BMT156961358.1.0,bus2=BMT8944055B.1.0,Phases=1,Linecode=CAB202_3_1,Length=0.063355,Units=km
new line.TR12341346 bus1=BMT8944055B.1.0,bus2=BMT8944058B.1.0,Phases=1,Linecode=CAB202_3_1,Length=0.071307,Units=km
new line.TR12341348 bus1=BMT8944058B.1.0,bus2=BMT8944052B.1.0,Phases=1,Linecode=CAB202_3_1,Length=0.131312,Units=km
new line.TR12341351 bus1=BMT8944052B.1.0,bus2=BMT8944060B.1.0,Phases=1,Linecode=CAB202_3_1,Length=0.121743,Units=km