! Definicao da curva de carga do alimentador

new loadshape.arqCurvaGeracaoGDBT npts=24 interval=1.0 mult=(0.0001 0.0001 0.0001 0.0001 0.0001 0.0001 0.17 0.47 0.7 0.9 1 1 0.93 0.8 0.53 0.33 0.2 0.13 0.0001 0.0001 0.0001 0.0001 0.0001 0.0001)
new loadshape.curvaTipicaIP npts=24 interval=1.0 mult=(1 1 1 1 1 0.0001 0.0001 0.0001 0.0001 0.0001 0.0001 0.0001 0.0001 0.0001 0.0001 0.0001 0.0001 1 1 1 1 1 1 1)
new loadshape.arqCurvaNormA3a-1 npts=24 interval=1.0 mult=(0.973 0.976 0.976 0.955 0.932 0.908 0.845 0.748 0.614 0.556 0.469 0.477 0.528 0.513 0.496 0.477 0.482 0.447 0.363 0.364 0.478 0.878 0.997 1)
new loadshape.arqCurvaNormCOM1 npts=24 interval=1.0 mult=(0.2829 0.2713 0.2579 0.2473 0.2525 0.2561 0.2644 0.3075 0.4291 0.6451 0.6719 0.695 0.6896 0.5458 0.496 0.4799 0.4648 0.5244 0.6155 0.557 0.5078 0.4221 0.3448 0.3078)
new loadshape.arqCurvaNormIND1 npts=24 interval=1.0 mult=(0.2947 0.2627 0.2576 0.2406 0.2317 0.2515 0.2608 0.3432 0.5117 0.648 0.7141 0.6811 0.5908 0.5221 0.5424 0.4677 0.5153 0.572 0.6732 0.5923 0.5857 0.5032 0.4838 0.3795)
new loadshape.arqCurvaNormRUR1 npts=24 interval=1.0 mult=(0.2491 0.2375 0.2322 0.2278 0.2236 0.2519 0.3176 0.3995 0.3726 0.4052 0.4071 0.4161 0.3218 0.3999 0.5176 0.5109 0.5749 0.7187 1 0.7532 0.5601 0.465 0.3904 0.3089)
new loadshape.arqCurvaNormRES1 npts=24 interval=1.0 mult=(0.3395 0.2809 0.2433 0.2167 0.223 0.2658 0.3462 0.4807 0.4422 0.3742 0.6161 0.4373 0.4628 0.5 0.5097 0.5449 0.521 0.7833 0.9324 0.893 0.6988 0.6507 0.5783 0.4369)
new loadshape.arqCurvaNormA4-1 npts=24 interval=1.0 mult=(0.9978 0.9964 1 0.9659 0.9537 0.9635 0.9524 0.9268 0.9482 0.9274 0.927 0.8954 0.8847 0.8793 0.848 0.8548 0.8322 0.7406 0.7961 0.7932 0.9142 0.933 0.9158 0.8999)
new loadshape.arqCurvaNormCOM2 npts=24 interval=1.0 mult=(0.4145 0.4018 0.3766 0.352 0.3511 0.3598 0.3391 0.4574 0.6231 0.716 0.7711 0.84 0.7298 0.6558 0.5734 0.5368 0.5199 0.6145 0.6563 0.6186 0.6376 0.5666 0.4744 0.4289)
new loadshape.arqCurvaNormIND2 npts=24 interval=1.0 mult=(0.2525 0.2491 0.2382 0.2316 0.2289 0.2485 0.2734 0.3384 0.4624 0.5434 0.5698 0.5846 0.5239 0.4867 0.4216 0.3667 0.3579 0.3407 0.365 0.3426 0.3351 0.3028 0.273 0.2399)
new loadshape.arqCurvaNormRUR2 npts=24 interval=1.0 mult=(0.2844 0.2735 0.256 0.2572 0.2565 0.3056 0.4113 0.5026 0.6325 0.5226 0.5733 0.5431 0.4596 0.4139 0.4974 0.5804 0.5941 0.7796 1 0.7813 0.6503 0.518 0.4706 0.3893)
new loadshape.arqCurvaNormRES2 npts=24 interval=1.0 mult=(0.3338 0.266 0.2389 0.2182 0.2035 0.2148 0.3004 0.3755 0.4334 0.4585 0.519 0.4328 0.5104 0.5076 0.5633 0.6949 0.6912 0.7351 0.9705 0.8747 0.8026 0.6799 0.6952 0.553 )
new loadshape.arqCurvaNormA4-2 npts=24 interval=1.0 mult=(0.4669 0.4493 0.4522 0.4497 0.4368 0.4472 0.4464 0.4969 0.5784 0.6216 0.6568 0.5925 0.5685 0.5579 0.5606 0.5334 0.5056 0.4728 0.4724 0.4427 0.4382 0.4324 0.4109 0.3938)
new loadshape.arqCurvaNormCOM3 npts=24 interval=1.0 mult=(0.4489 0.4182 0.3985 0.3884 0.3918 0.4203 0.4458 0.4954 0.6258 0.6749 0.6634 0.7012 0.6794 0.6623 0.6471 0.62 0.6047 0.6295 0.7089 0.6825 0.6174 0.5728 0.5219 0.482)
new loadshape.arqCurvaNormIND3 npts=24 interval=1.0 mult=(0.2434 0.2342 0.238 0.2374 0.2554 0.3047 0.3428 0.3855 0.4611 0.4964 0.5105 0.4591 0.4183 0.3921 0.3823 0.3376 0.3169 0.3092 0.3191 0.2813 0.2614 0.2555 0.2302 0.2243)
new loadshape.arqCurvaNormRUR3 npts=24 interval=1.0 mult=(0.3273 0.3315 0.2966 0.3139 0.3303 0.3731 0.5097 0.6347 0.7121 0.7585 0.7998 0.6641 0.6812 0.76 0.7851 0.66 0.7525 0.8951 0.9629 0.8024 0.6813 0.5802 0.4815 0.3915)
new loadshape.arqCurvaNormRES3 npts=24 interval=1.0 mult=(0.457 0.3449 0.2619 0.2339 0.2428 0.2457 0.3044 0.4856 0.4932 0.5171 0.6855 0.6354 0.5759 0.589 0.6012 0.6972 0.643 0.7554 1 0.8688 0.8608 0.7421 0.7077 0.5638)
new loadshape.arqCurvaNormA4-3 npts=24 interval=1.0 mult=(0.5198 0.52 0.511 0.5029 0.5115 0.5357 0.592 0.6591 0.7147 0.7377 0.7221 0.6758 0.6277 0.6399 0.6301 0.61 0.57 0.5379 0.5607 0.5209 0.5163 0.4908 0.4905 0.4676)
new loadshape.arqCurvaNormCOM4 npts=24 interval=1.0 mult=(0.5013 0.4661 0.4421 0.4497 0.4732 0.4806 0.4777 0.5305 0.6122 0.6386 0.6696 0.6912 0.6415 0.6433 0.6125 0.6617 0.6244 0.6201 0.6453 0.6408 0.6096 0.5691 0.5368 0.5185)
new loadshape.arqCurvaNormIND4 npts=24 interval=1.0 mult=(0.3557 0.3507 0.3476 0.3662 0.4293 0.4659 0.4484 0.5453 0.5992 0.6222 0.6138 0.5838 0.5595 0.5758 0.54 0.5136 0.498 0.472 0.4413 0.4005 0.379 0.3662 0.3335 0.3037)
new loadshape.arqCurvaNormRUR4 npts=24 interval=1.0 mult=(0.5185 0.5071 0.4936 0.5087 0.5508 0.5948 0.6968 0.8162 0.8617 0.8432 0.7905 0.748 0.7642 0.8167 0.7596 0.75 0.6743 0.6899 0.7728 0.7424 0.6427 0.5923 0.5706 0.5236)
new loadshape.arqCurvaNormRES4 npts=24 interval=1.0 mult=(0.516 0.4391 0.3422 0.3046 0.3036 0.2722 0.3038 0.3298 0.3769 0.4455 0.5086 0.6024 0.6334 0.5322 0.5694 0.5329 0.5845 0.6914 0.7346 0.8297 0.7879 0.7931 0.7471 0.6206)
new loadshape.arqCurvaNormA4-4 npts=24 interval=1.0 mult=(0.5396 0.5186 0.5061 0.4774 0.5047 0.5321 0.5526 0.5999 0.6627 0.6513 0.665 0.6513 0.5974 0.5609 0.533 0.4867 0.4528 0.4301 0.4361 0.4008 0.3899 0.3652 0.371 0.3601)
new loadshape.arqCurvaNormRES5 npts=24 interval=1.0 mult=(0.6121 0.4356 0.3872 0.3315 0.322 0.3418 0.4185 0.3834 0.5265 0.6418 0.7321 0.7536 0.7862 0.6928 0.6545 0.7057 0.7765 0.7405 1 0.9695 0.8162 0.7383 0.6563 0.5844)
new loadshape.arqCurvaNormA4-5 npts=24 interval=1.0 mult=(0.5545 0.5354 0.5378 0.5287 0.5287 0.531 0.5497 0.6084 0.6525 0.6882 0.6853 0.619 0.6163 0.6321 0.6249 0.591 0.5393 0.5045 0.4753 0.4303 0.4424 0.478 0.4838 0.4693 )
new loadshape.arqCurvaNormRES6 npts=24 interval=1.0 mult=(0.6376 0.5832 0.4664 0.4935 0.4226 0.3735 0.3786 0.4505 0.561 0.6721 0.721 0.9375 0.8814 0.6557 0.6731 0.618 0.6398 0.7819 1 0.947 0.9033 0.8831 0.8019 0.6938)
new loadshape.arqCurvaNormA4-6 npts=24 interval=1.0 mult=(0.6449 0.6377 0.6145 0.6181 0.6287 0.6333 0.6445 0.6604 0.7002 0.7187 0.7061 0.6633 0.653 0.6587 0.6357 0.601 0.5694 0.5466 0.5127 0.4941 0.4783 0.4863 0.4987 0.4893)
new loadshape.arqCurvaNormA4-7 npts=24 interval=1.0 mult=(0.8287 0.8153 0.7793 0.751 0.7749 0.7666 0.7249 0.7429 0.768 0.7887 0.7935 0.7488 0.7443 0.7543 0.7176 0.6904 0.6822 0.6623 0.6542 0.6366 0.6453 0.6674 0.6281 0.6237)

! 4CRTP
new loadshape.arqCurvaNormMT1_1 npts=96 interval=0.25 mult=(0.839 0.783 0.772 0.801 0.764 0.757 0.753 0.76 0.798 0.757 0.745 0.76 0.772 0.779 0.749 0.738 0.764 0.805 0.801 0.753 0.787 0.801 0.794 0.79 0.757 0.749 0.73 0.749 0.745 0.73 0.757 0.749 0.738 0.734 0.76 0.843 0.798 0.775 0.79 0.79 0.824 0.82 0.79 0.828 0.809 0.816 0.798 0.794 0.835 0.839 0.775 0.809 0.85 0.835 0.809 0.831 0.839 0.805 0.798 0.835 0.85 0.843 0.783 0.85 0.865 0.85 0.865 0.891 0.846 0.831 0.858 0.899 0.846 0.854 0.891 0.884 0.843 0.846 0.884 0.858 0.835 0.869 0.884 0.865 0.858 0.869 0.824 0.805 0.809 0.824 0.839 0.813 0.801 0.831 0.805 0.79)
new loadshape.arqCurvaNormMT1_2 npts=96 interval=0.25 mult=(0.756 0.669 0.709 0.693 0.654 0.685 0.606 0.654 0.583 0.591 0.614 0.638 0.583 0.551 0.614 0.543 0.543 0.583 0.591 0.63 0.591 0.583 0.614 0.512 0.48 0.472 0.528 0.48 0.472 0.496 0.512 0.591 0.567 0.567 0.622 0.606 0.528 0.622 0.701 0.654 0.677 0.63 0.646 0.669 0.638 0.614 0.717 0.638 0.685 0.669 0.748 0.677 0.717 0.622 0.701 0.669 0.614 0.638 0.606 0.654 0.646 0.669 0.78 0.717 0.748 0.63 0.685 0.654 0.709 0.709 0.811 0.732 0.89 0.882 0.882 0.906 0.89 0.929 0.945 0.89 0.898 0.929 0.874 0.85 0.874 0.819 0.819 0.866 0.787 0.843 0.732 0.748 0.693 0.701 0.701 0.709)
new loadshape.arqCurvaNormMT1_3 npts=96 interval=0.25 mult=(0.597 0.604 0.632 0.607 0.579 0.591 0.569 0.594 0.585 0.607 0.55 0.566 0.538 0.566 0.591 0.566 0.575 0.566 0.619 0.585 0.591 0.572 0.55 0.538 0.465 0.531 0.541 0.591 0.619 0.645 0.657 0.651 0.761 0.777 0.777 0.767 0.821 0.792 0.865 0.802 0.833 0.811 0.836 0.802 0.855 0.846 0.849 0.846 0.814 0.827 0.799 0.777 0.783 0.818 0.83 0.836 0.78 0.811 0.818 0.827 0.799 0.83 0.783 0.758 0.799 0.802 0.821 0.758 0.774 0.783 0.827 0.789 0.824 0.862 0.846 0.906 0.862 0.896 0.858 0.871 0.84 0.884 0.821 0.792 0.777 0.758 0.761 0.73 0.755 0.73 0.742 0.692 0.717 0.682 0.692 0.664)
new loadshape.arqCurvaNormMT1_4 npts=96 interval=0.25 mult=(0.261 0.304 0.239 0.283 0.239 0.228 0.261 0.239 0.25 0.239 0.283 0.196 0.207 0.239 0.239 0.293 0.261 0.239 0.217 0.228 0.196 0.185 0.239 0.185 0.25 0.261 0.337 0.337 0.293 0.359 0.348 0.38 0.435 0.37 0.359 0.348 0.37 0.326 0.402 0.326 0.359 0.37 0.489 0.5 0.576 0.511 0.511 0.511 0.511 0.522 0.5 0.457 0.424 0.413 0.435 0.424 0.435 0.446 0.402 0.424 0.413 0.511 0.489 0.522 0.543 0.467 0.533 0.533 0.391 0.446 0.489 0.446 0.467 0.511 0.533 0.543 0.565 0.609 0.511 0.533 0.478 0.489 0.62 0.478 0.522 0.457 0.413 0.435 0.424 0.457 0.402 0.446 0.446 0.5 0.457 0.402)
new loadshape.arqCurvaNormMT1_5 npts=96 interval=0.25 mult=(0.329 0.329 0.314 0.314 0.329 0.343 0.343 0.329 0.314 0.314 0.314 0.314 0.329 0.343 0.329 0.329 0.329 0.329 0.314 0.329 0.314 0.343 0.414 0.5 0.5 0.5 0.5 0.5 0.543 0.529 0.543 0.529 0.514 0.529 0.529 0.514 0.529 0.514 0.514 0.529 0.529 0.514 0.514 0.514 0.529 0.529 0.514 0.543 0.529 0.543 0.529 0.543 0.514 0.543 0.529 0.543 0.514 0.543 0.529 0.543 0.529 0.543 0.529 0.543 0.529 0.543 0.529 0.543 0.529 0.543 0.457 0.329 0.343 0.343 0.357 0.343 0.343 0.329 0.343 0.329 0.343 0.343 0.343 0.329 0.343 0.343 0.343 0.329 0.329 0.314 0.329 0.329 0.329 0.329 0.329 0.329)
new loadshape.arqCurvaNormMT1_6 npts=96 interval=0.25 mult=(0.382 0.358 0.347 0.376 0.382 0.376 0.376 0.382 0.376 0.393 0.376 0.37 0.37 0.358 0.387 0.364 0.353 0.387 0.376 0.358 0.376 0.37 0.347 0.37 0.358 0.364 0.335 0.37 0.335 0.37 0.387 0.416 0.422 0.416 0.445 0.457 0.416 0.428 0.393 0.468 0.422 0.428 0.445 0.405 0.387 0.37 0.364 0.376 0.364 0.341 0.347 0.324 0.335 0.353 0.364 0.353 0.347 0.341 0.341 0.341 0.341 0.376 0.329 0.324 0.324 0.324 0.341 0.347 0.318 0.335 0.318 0.358 0.364 0.37 0.376 0.399 0.376 0.37 0.387 0.37 0.37 0.387 0.387 0.405 0.422 0.387 0.364 0.347 0.37 0.37 0.376 0.37 0.37 0.376 0.347 0.37)
new loadshape.arqCurvaNormMT1_7 npts=96 interval=0.25 mult=(0.222 0.193 0.185 0.193 0.202 0.198 0.189 0.198 0.206 0.193 0.189 0.193 0.198 0.214 0.206 0.202 0.202 0.206 0.193 0.189 0.198 0.202 0.214 0.181 0.189 0.243 0.263 0.247 0.23 0.3 0.37 0.3 0.325 0.333 0.317 0.272 0.284 0.309 0.284 0.255 0.3 0.317 0.309 0.346 0.313 0.272 0.267 0.263 0.239 0.239 0.226 0.226 0.288 0.288 0.267 0.267 0.276 0.3 0.296 0.28 0.296 0.325 0.317 0.296 0.272 0.259 0.272 0.251 0.255 0.263 0.259 0.247 0.267 0.263 0.276 0.267 0.259 0.263 0.272 0.267 0.272 0.259 0.243 0.243 0.239 0.243 0.255 0.255 0.259 0.255 0.251 0.255 0.247 0.235 0.235 0.226)
new loadshape.arqCurvaNormMT1_8 npts=96 interval=0.25 mult=(0.151 0.151 0.155 0.144 0.148 0.148 0.148 0.151 0.151 0.148 0.155 0.189 0.189 0.175 0.151 0.162 0.144 0.148 0.148 0.151 0.144 0.144 0.144 0.144 0.134 0.124 0.12 0.117 0.134 0.151 0.168 0.206 0.265 0.306 0.299 0.33 0.361 0.357 0.34 0.347 0.347 0.344 0.347 0.351 0.347 0.337 0.316 0.302 0.268 0.247 0.251 0.292 0.285 0.261 0.241 0.234 0.22 0.216 0.213 0.216 0.22 0.216 0.21 0.22 0.21 0.21 0.206 0.213 0.21 0.247 0.254 0.244 0.223 0.199 0.203 0.189 0.199 0.196 0.196 0.172 0.168 0.172 0.172 0.165 0.162 0.158 0.165 0.162 0.182 0.206 0.199 0.175 0.151 0.158 0.151 0.155)
new loadshape.arqCurvaNormMT1_9 npts=96 interval=0.25 mult=(0.066 0.066 0.066 0.069 0.066 0.071 0.066 0.06 0.066 0.063 0.063 0.063 0.066 0.066 0.066 0.063 0.06 0.063 0.071 0.071 0.071 0.066 0.057 0.054 0.054 0.06 0.057 0.069 0.111 0.117 0.131 0.14 0.149 0.151 0.271 0.257 0.223 0.206 0.211 0.234 0.24 0.211 0.249 0.24 0.186 0.211 0.177 0.134 0.129 0.12 0.1 0.097 0.1 0.129 0.134 0.146 0.14 0.146 0.123 0.123 0.114 0.103 0.106 0.094 0.089 0.097 0.083 0.063 0.066 0.057 0.054 0.063 0.069 0.074 0.08 0.08 0.083 0.063 0.074 0.069 0.074 0.071 0.071 0.069 0.071 0.069 0.069 0.06 0.074 0.069 0.069 0.066 0.06 0.06 0.06 0.063)
new loadshape.arqCurvaNormMT1_10 npts=96 interval=0.25 mult=(0.082 0.102 0.082 0.082 0.082 0.082 0.082 0.082 0.082 0.102 0.082 0.082 0.082 0.082 0.082 0.082 0.082 0.082 0.102 0.102 0.082 0.082 0.082 0.082 0.102 0.102 0.102 0.102 0.102 0.102 0.102 0.082 0.082 0.082 0.082 0.122 0.224 0.735 0.694 0.714 0.776 0.776 0.755 0.816 0.816 0.837 0.837 0.857 0.816 0.837 0.857 0.857 0.816 0.837 0.816 0.939 0.857 0.796 0.939 0.878 0.837 0.857 0.878 0.898 0.898 0.918 0.918 0.939 0.898 0.837 0.816 0.837 0.776 0.776 0.796 0.714 0.776 0.776 0.714 0.735 0.755 0.796 0.735 0.776 0.694 0.755 0.714 0.653 0.469 0.122 0.102 0.102 0.102 0.122 0.102 0.122)
new loadshape.arqCurvaNormMT1_11 npts=96 interval=0.25 mult=(0.058 0.058 0.058 0.058 0.066 0.05 0.066 0.058 0.058 0.058 0.058 0.058 0.058 0.058 0.058 0.058 0.05 0.05 0.066 0.107 0.116 0.14 0.207 0.231 0.19 0.248 0.207 0.223 0.223 0.231 0.24 0.248 0.248 0.24 0.182 0.157 0.091 0.083 0.091 0.091 0.091 0.091 0.099 0.083 0.083 0.083 0.091 0.091 0.083 0.083 0.091 0.074 0.083 0.074 0.074 0.074 0.074 0.074 0.066 0.066 0.066 0.058 0.066 0.074 0.074 0.066 0.083 0.083 0.066 0.074 0.083 0.083 0.091 0.124 0.14 0.124 0.124 0.124 0.107 0.107 0.091 0.091 0.083 0.099 0.083 0.083 0.083 0.091 0.091 0.083 0.083 0.099 0.091 0.074 0.058 0.066)
new loadshape.arqCurvaNormMT1_12 npts=96 interval=0.25 mult=(0.162 0.162 0.162 0.162 0.175 0.175 0.162 0.162 0.175 0.175 0.175 0.175 0.162 0.162 0.188 0.188 0.188 0.225 0.212 0.175 0.15 0.138 0.125 0.113 0.113 0.113 0.1 0.1 0.1 0.1 0.113 0.15 0.138 0.113 0.1 0.1 0.1 0.15 0.262 0.287 0.25 0.225 0.238 0.25 0.262 0.312 0.238 0.225 0.2 0.2 0.2 0.2 0.162 0.113 0.075 0.062 0.113 0.113 0.1 0.15 0.1 0.087 0.1 0.075 0.075 0.087 0.087 0.05 0.075 0.087 0.075 0.1 0.138 0.175 0.212 0.175 0.138 0.175 0.138 0.125 0.162 0.138 0.125 0.15 0.15 0.138 0.15 0.15 0.138 0.138 0.138 0.125 0.125 0.125 0.138 0.138)
new loadshape.arqCurvaNormMT1_13 npts=96 interval=0.25 mult=(0.133 0.133 0.133 0.133 0.133 0.133 0.133 0.111 0.133 0.111 0.133 0.133 0.133 0.111 0.133 0.133 0.133 0.133 0.133 0.133 0.133 0.133 0.133 0.111 0.111 0.067 0.067 0.067 0.133 0.133 0.133 0.133 0.133 0.156 0.111 0.111 0.111 0.111 0.111 0.133 0.111 0.111 0.089 0.111 0.111 0.111 0.111 0.111 0.111 0.089 0.089 0.111 0.089 0.089 0.089 0.111 0.111 0.067 0.089 0.089 0.111 0.089 0.089 0.111 0.089 0.089 0.178 0.111 0.133 0.111 0.156 0.156 0.178 0.2 0.2 0.2 0.178 0.178 0.2 0.178 0.2 0.178 0.156 0.178 0.178 0.178 0.156 0.178 0.156 0.133 0.156 0.133 0.178 0.156 0.178 0.133)
new loadshape.arqCurvaNormMT1_14 npts=96 interval=0.25 mult=(0.33 0.35 0.365 0.375 0.35 0.34 0.36 0.345 0.33 0.335 0.355 0.325 0.325 0.3 0.29 0.31 0.33 0.325 0.3 0.32 0.35 0.375 0.405 0.28 0.29 0.29 0.235 0.27 0.275 0.27 0.295 0.285 0.32 0.285 0.255 0.29 0.31 0.315 0.325 0.335 0.305 0.29 0.28 0.295 0.305 0.305 0.295 0.26 0.275 0.215 0.25 0.25 0.28 0.25 0.27 0.28 0.285 0.275 0.315 0.34 0.255 0.26 0.275 0.275 0.29 0.285 0.3 0.375 0.375 0.435 0.525 0.625 0.585 0.63 0.555 0.56 0.52 0.545 0.595 0.585 0.575 0.54 0.48 0.485 0.495 0.48 0.49 0.47 0.505 0.495 0.465 0.47 0.36 0.365 0.325 0.33)
new loadshape.arqCurvaNormMT1_15 npts=96 interval=0.25 mult=(0.208 0.201 0.208 0.208 0.201 0.208 0.208 0.208 0.201 0.214 0.201 0.201 0.201 0.201 0.201 0.195 0.208 0.201 0.195 0.195 0.201 0.201 0.208 0.201 0.188 0.175 0.188 0.201 0.208 0.195 0.208 0.221 0.234 0.234 0.247 0.253 0.273 0.279 0.26 0.273 0.279 0.305 0.331 0.357 0.357 0.344 0.331 0.325 0.26 0.273 0.312 0.325 0.305 0.312 0.286 0.318 0.305 0.305 0.253 0.26 0.234 0.234 0.234 0.221 0.227 0.221 0.208 0.214 0.208 0.221 0.208 0.214 0.227 0.234 0.221 0.221 0.221 0.221 0.221 0.221 0.214 0.208 0.214 0.208 0.201 0.201 0.201 0.208 0.201 0.195 0.201 0.195 0.208 0.201 0.208 0.201)
new loadshape.arqCurvaNormMT1_16 npts=96 interval=0.25 mult=(0.405 0.405 0.459 0.459 0.432 0.405 0.365 0.405 0.405 0.392 0.405 0.405 0.405 0.419 0.405 0.432 0.419 0.378 0.405 0.473 0.649 0.595 0.73 0.689 0.649 0.73 0.581 0.662 0.676 0.716 0.649 0.676 0.716 0.757 0.784 0.932 0.892 0.905 0.919 0.892 0.905 0.905 0.932 0.878 0.878 0.797 0.838 0.77 0.743 0.851 0.703 0.824 0.878 0.824 0.824 0.797 0.838 0.77 0.743 0.784 0.77 0.784 0.77 0.784 0.797 0.892 0.811 0.824 0.838 0.77 0.797 0.851 0.838 0.824 0.676 0.716 0.622 0.595 0.581 0.662 0.608 0.581 0.514 0.486 0.514 0.5 0.5 0.5 0.473 0.446 0.432 0.459 0.473 0.459 0.432 0.419)
new loadshape.arqCurvaNormMT1_17 npts=96 interval=0.25 mult=(0.953 0.959 0.976 0.959 0.953 0.959 0.982 0.959 0.947 0.947 0.941 0.935 0.941 0.941 0.941 0.935 0.941 0.935 0.941 0.953 0.994 0.982 0.982 0.971 0.953 0.971 0.971 0.971 0.976 0.959 0.947 0.965 0.947 0.871 0.882 0.812 0.876 0.718 0.712 0.718 0.729 0.729 0.729 0.694 0.494 0.488 0.488 0.488 0.306 0.247 0.253 0.259 0.259 0.247 0.247 0.241 0.241 0.247 0.247 0.241 0.241 0.241 0.235 0.229 0.218 0.229 0.235 0.247 0.247 0.247 0.259 0.282 0.282 0.294 0.294 0.282 0.288 0.282 0.288 0.324 0.524 0.747 0.729 0.729 0.724 0.741 0.682 0.718 0.694 0.718 0.706 0.694 0.7 0.729 0.718 0.718)
new loadshape.arqCurvaNormMT1_18 npts=96 interval=0.25 mult=(0.84 0.814 0.821 0.84 0.929 0.891 0.904 0.705 0.654 0.776 0.776 0.814 0.769 0.712 0.724 0.724 0.699 0.628 0.462 0.436 0.353 0.346 0.359 0.346 0.571 0.487 0.327 0.346 0.346 0.359 0.333 0.327 0.333 0.333 0.346 0.327 0.333 0.34 0.41 0.622 0.712 0.949 0.936 0.942 0.962 0.91 0.692 0.686 0.679 0.686 0.679 0.667 0.583 0.603 0.551 0.462 0.359 0.346 0.385 0.353 0.378 0.436 0.487 0.558 0.538 0.538 0.551 0.449 0.442 0.442 0.442 0.429 0.385 0.34 0.34 0.34 0.34 0.34 0.34 0.321 0.474 0.474 0.481 0.59 0.647 0.814 0.885 0.846 0.622 0.641 0.641 0.731 0.699 0.609 0.615 0.603)
new loadshape.arqCurvaNormMT1_19 npts=96 interval=0.25 mult=(0.705 0.67 0.554 0.554 0.67 0.491 0.616 0.643 0.554 0.723 0.661 0.455 0.661 0.589 0.509 0.58 0.562 0.464 0.634 0.571 0.536 0.768 0.714 0.554 0.786 0.643 0.607 0.705 0.741 0.705 0.821 0.741 0.687 0.857 0.848 0.804 0.884 0.812 0.812 0.821 0.723 0.687 0.714 0.786 0.777 0.786 0.812 0.759 0.875 0.866 0.795 0.768 0.616 0.795 0.741 0.643 0.857 0.786 0.795 0.839 0.875 0.848 0.857 0.812 0.67 0.804 0.589 0.545 0.491 0.491 0.473 0.5 0.571 0.616 0.518 0.5 0.527 0.5 0.536 0.491 0.536 0.634 0.732 0.598 0.58 0.804 0.643 0.625 0.652 0.536 0.625 0.58 0.545 0.696 0.786 0.607)
new loadshape.arqCurvaNormMT1_20 npts=96 interval=0.25 mult=(0.866 0.866 0.881 0.896 0.881 0.866 0.881 0.881 0.896 0.866 0.881 0.896 0.866 0.881 0.851 0.866 0.851 0.836 0.851 0.851 0.866 0.851 0.746 0.582 0.418 0.403 0.373 0.328 0.104 0.119 0.104 0.09 0.09 0.09 0.075 0.075 0.09 0.09 0.075 0.075 0.09 0.075 0.075 0.104 0.075 0.075 0.09 0.09 0.09 0.09 0.09 0.09 0.09 0.104 0.09 0.075 0.09 0.09 0.075 0.104 0.104 0.09 0.119 0.09 0.09 0.119 0.164 0.179 0.179 0.299 0.418 0.567 0.836 0.94 0.925 0.821 0.791 0.821 0.806 0.791 0.791 0.821 0.821 0.821 0.881 0.94 0.925 0.91 0.91 0.896 0.896 0.925 0.896 0.91 0.91 0.896)
new loadshape.arqCurvaNormMT1_21 npts=96 interval=0.25 mult=(0.835 0.806 0.816 0.816 0.816 0.816 0.806 0.835 0.845 0.835 0.816 0.835 0.816 0.816 0.806 0.806 0.835 0.854 0.835 0.835 0.806 0.825 0.835 0.825 0.757 0.66 0.66 0.544 0.379 0.388 0.388 0.466 0.447 0.505 0.437 0.427 0.388 0.427 0.398 0.408 0.369 0.388 0.417 0.447 0.447 0.515 0.524 0.495 0.447 0.417 0.417 0.476 0.476 0.524 0.573 0.515 0.544 0.485 0.456 0.427 0.447 0.437 0.495 0.495 0.466 0.476 0.456 0.476 0.476 0.476 0.456 0.524 0.767 0.854 0.913 0.893 0.922 0.883 0.893 0.893 0.913 0.883 0.883 0.845 0.845 0.825 0.825 0.835 0.845 0.864 0.835 0.816 0.835 0.825 0.806 0.816)
new loadshape.arqCurvaNormMT1_22 npts=96 interval=0.25 mult=(0.948 0.958 0.938 0.917 0.917 0.927 0.927 0.917 0.917 0.906 0.906 0.938 0.938 0.948 0.927 0.938 0.896 0.927 0.917 0.906 0.927 0.917 0.917 0.854 0.594 0.281 0.271 0.292 0.271 0.313 0.302 0.281 0.323 0.344 0.375 0.375 0.354 0.396 0.396 0.385 0.427 0.375 0.365 0.344 0.323 0.323 0.323 0.344 0.344 0.406 0.354 0.365 0.448 0.469 0.438 0.51 0.479 0.438 0.469 0.448 0.417 0.406 0.427 0.406 0.417 0.396 0.385 0.396 0.375 0.375 0.365 0.354 0.438 0.542 0.75 0.833 0.823 0.948 0.969 0.969 0.948 0.938 0.969 0.948 0.958 0.948 0.917 0.917 0.927 0.896 0.917 0.917 0.896 0.865 0.885 0.865)
new loadshape.arqCurvaNormMT1_23 npts=96 interval=0.25 mult=(0.732 0.756 0.732 0.732 0.732 0.732 0.732 0.732 0.732 0.732 0.756 0.732 0.732 0.732 0.732 0.756 0.756 0.732 0.756 0.756 0.683 0.659 0.634 0.61 0.439 0.463 0.463 0.341 0.366 0.39 0.39 0.439 0.415 0.463 0.488 0.585 0.488 0.512 0.561 0.463 0.488 0.537 0.415 0.415 0.415 0.488 0.366 0.463 0.415 0.366 0.366 0.317 0.366 0.39 0.415 0.439 0.366 0.366 0.366 0.366 0.366 0.39 0.39 0.39 0.39 0.366 0.366 0.439 0.439 0.463 0.463 0.537 0.829 0.756 0.805 0.854 0.805 0.829 0.854 0.805 0.756 0.756 0.756 0.805 0.805 0.805 0.805 0.78 0.805 0.78 0.732 0.756 0.805 0.805 0.78 0.756)
new loadshape.arqCurvaNormMT1_24 npts=96 interval=0.25 mult=(0.547 0.642 0.642 0.642 0.623 0.623 0.396 0.377 0.566 0.698 0.66 0.642 0.66 0.415 0.434 0.66 0.698 0.679 0.698 0.755 0.774 0.585 0.585 0.736 0.755 0.679 0.698 0.736 0.566 0.34 0.396 0.472 0.83 0.849 0.83 0.868 0.736 0.377 0.566 0.679 0.698 0.774 0.472 0.453 0.453 0.302 0.509 0.66 0.736 0.528 0.547 0.453 0.604 0.396 0.358 0.226 0.377 0.528 0.585 0.642 0.566 0.509 0.396 0.321 0.472 0.698 0.642 0.66 0.623 0.604 0.509 0.491 0.642 0.868 0.925 0.943 0.811 0.774 0.623 0.528 0.717 0.811 0.849 0.887 0.83 0.792 0.623 0.509 0.698 0.698 0.698 0.66 0.66 0.679 0.434 0.396)
new loadshape.arqCurvaNormMT1_25 npts=96 interval=0.25 mult=(0.692 0.703 0.714 0.703 0.681 0.626 0.604 0.626 0.604 0.604 0.604 0.604 0.604 0.615 0.593 0.615 0.615 0.648 0.67 0.67 0.692 0.703 0.758 0.736 0.681 0.648 0.758 0.78 0.791 0.736 0.769 0.78 0.758 0.747 0.703 0.747 0.758 0.747 0.725 0.758 0.78 0.791 0.78 0.725 0.659 0.637 0.681 0.637 0.648 0.637 0.604 0.67 0.626 0.648 0.659 0.626 0.593 0.626 0.604 0.648 0.604 0.582 0.582 0.604 0.571 0.571 0.571 0.56 0.626 0.681 0.67 0.736 0.736 0.714 0.791 0.758 0.758 0.769 0.758 0.714 0.736 0.747 0.758 0.747 0.736 0.692 0.681 0.681 0.681 0.67 0.681 0.659 0.637 0.659 0.593 0.604)
new loadshape.arqCurvaNormMT1_26 npts=96 interval=0.25 mult=(0.449 0.457 0.465 0.48 0.496 0.48 0.465 0.48 0.48 0.449 0.449 0.425 0.441 0.449 0.433 0.425 0.465 0.449 0.457 0.488 0.465 0.457 0.488 0.488 0.433 0.402 0.417 0.425 0.449 0.417 0.48 0.457 0.465 0.488 0.472 0.465 0.457 0.48 0.496 0.496 0.701 0.709 0.551 0.583 0.646 0.504 0.472 0.433 0.433 0.528 0.583 0.575 0.551 0.583 0.496 0.48 0.512 0.496 0.449 0.457 0.472 0.48 0.488 0.488 0.441 0.433 0.441 0.504 0.472 0.465 0.488 0.496 0.575 0.551 0.543 0.543 0.512 0.528 0.52 0.488 0.512 0.52 0.488 0.472 0.48 0.488 0.48 0.48 0.48 0.488 0.472 0.465 0.472 0.496 0.504 0.496)
new loadshape.arqCurvaNormMT2_1 npts=96 interval=0.25 mult=(0.845 0.839 0.869 0.877 0.849 0.879 0.869 0.893 0.877 0.899 0.857 0.871 0.849 0.871 0.863 0.863 0.835 0.861 0.861 0.855 0.881 0.827 0.871 0.851 0.794 0.738 0.762 0.808 0.827 0.871 0.851 0.808 0.853 0.851 0.869 0.867 0.889 0.873 0.883 0.873 0.909 0.889 0.909 0.899 0.923 0.927 0.851 0.887 0.931 0.946 0.897 0.921 0.847 0.869 0.877 0.929 0.911 0.952 0.895 0.911 0.929 0.869 0.867 0.935 0.964 0.944 0.923 0.897 0.861 0.954 0.885 0.869 0.97 0.954 0.925 0.952 0.911 0.915 0.911 0.905 0.915 0.917 0.909 0.891 0.954 0.885 0.879 0.788 0.831 0.857 0.857 0.875 0.796 0.813 0.817 0.869)
new loadshape.arqCurvaNormMT2_2 npts=96 interval=0.25 mult=(0.601 0.591 0.599 0.587 0.576 0.574 0.582 0.582 0.594 0.583 0.563 0.57 0.57 0.562 0.562 0.561 0.568 0.585 0.587 0.56 0.562 0.568 0.569 0.585 0.635 0.637 0.652 0.668 0.711 0.722 0.73 0.739 0.768 0.776 0.812 0.806 0.817 0.806 0.827 0.842 0.853 0.871 0.847 0.824 0.866 0.856 0.84 0.852 0.837 0.853 0.876 0.863 0.855 0.857 0.857 0.865 0.872 0.865 0.848 0.84 0.841 0.828 0.82 0.837 0.825 0.842 0.855 0.851 0.833 0.816 0.811 0.821 0.827 0.836 0.836 0.823 0.824 0.819 0.807 0.815 0.789 0.784 0.793 0.796 0.776 0.745 0.727 0.699 0.654 0.643 0.633 0.625 0.616 0.599 0.587 0.575)
new loadshape.arqCurvaNormMT2_3 npts=96 interval=0.25 mult=(0.386 0.382 0.376 0.376 0.382 0.373 0.376 0.365 0.365 0.369 0.378 0.376 0.376 0.38 0.386 0.362 0.36 0.367 0.378 0.367 0.362 0.376 0.371 0.365 0.341 0.336 0.343 0.343 0.371 0.424 0.432 0.485 0.572 0.594 0.579 0.598 0.579 0.592 0.62 0.59 0.646 0.679 0.749 0.779 0.779 0.817 0.771 0.688 0.71 0.723 0.749 0.751 0.736 0.703 0.651 0.614 0.627 0.585 0.52 0.544 0.603 0.579 0.572 0.524 0.511 0.509 0.489 0.487 0.509 0.448 0.413 0.41 0.43 0.452 0.496 0.493 0.515 0.522 0.522 0.502 0.489 0.474 0.452 0.439 0.426 0.415 0.437 0.43 0.393 0.408 0.389 0.371 0.371 0.367 0.369 0.373)
new loadshape.arqCurvaNormMT2_4 npts=96 interval=0.25 mult=(0.264 0.468 0.468 0.468 0.463 0.443 0.06 0.055 0.055 0.06 0.06 0.045 0.05 0.05 0.05 0.05 0.05 0.254 0.463 0.617 0.786 0.697 0.692 0.478 0.313 0.726 0.721 0.731 0.746 0.736 0.726 0.672 0.642 0.672 0.662 0.657 0.652 0.692 0.697 0.711 0.721 0.771 0.731 0.701 0.652 0.662 0.682 0.662 0.647 0.652 0.692 0.687 0.697 0.692 0.701 0.697 0.667 0.662 0.692 0.746 0.935 0.915 0.97 1 0.811 0.697 0.682 0.667 0.677 0.652 0.672 0.721 0.677 0.652 0.652 0.687 0.682 0.672 0.662 0.448 0.264 0.249 0.647 0.667 0.697 0.687 0.642 0.632 0.632 0.632 0.617 0.632 0.468 0.179 0.05 0.05)
new loadshape.arqCurvaNormMT2_5 npts=96 interval=0.25 mult=(0.161 0.16 0.162 0.158 0.158 0.161 0.159 0.155 0.158 0.161 0.159 0.159 0.153 0.157 0.155 0.154 0.152 0.155 0.151 0.153 0.156 0.158 0.194 0.191 0.183 0.188 0.191 0.188 0.232 0.265 0.225 0.24 0.238 0.252 0.249 0.256 0.213 0.214 0.21 0.217 0.205 0.208 0.216 0.223 0.211 0.21 0.21 0.213 0.205 0.191 0.187 0.186 0.181 0.176 0.174 0.177 0.176 0.171 0.168 0.171 0.173 0.169 0.165 0.167 0.167 0.169 0.174 0.157 0.156 0.159 0.163 0.165 0.177 0.185 0.182 0.186 0.186 0.181 0.181 0.186 0.181 0.183 0.179 0.183 0.181 0.18 0.177 0.176 0.171 0.171 0.167 0.169 0.169 0.17 0.167 0.167)
new loadshape.arqCurvaNormMT2_6 npts=96 interval=0.25 mult=(0.044 0.038 0.044 0.038 0.038 0.044 0.038 0.044 0.038 0.044 0.044 0.044 0.044 0.038 0.044 0.044 0.038 0.044 0.051 0.051 0.051 0.057 0.051 0.038 0.044 0.038 0.044 0.076 0.082 0.108 0.133 0.165 0.209 0.196 0.209 0.203 0.494 0.589 0.633 0.652 0.829 0.671 0.658 0.576 0.456 0.456 0.424 0.335 0.297 0.392 0.354 0.323 0.348 0.386 0.399 0.437 0.494 0.462 0.443 0.418 0.418 0.627 0.677 0.684 0.709 0.709 0.696 0.741 0.772 0.766 0.804 0.557 0.475 0.424 0.5 0.411 0.272 0.228 0.076 0.057 0.044 0.051 0.038 0.051 0.051 0.044 0.051 0.038 0.044 0.032 0.038 0.044 0.038 0.044 0.038 0.044)
new loadshape.arqCurvaNormMT2_7 npts=96 interval=0.25 mult=(0.115 0.118 0.115 0.111 0.111 0.111 0.111 0.111 0.111 0.111 0.111 0.105 0.09 0.09 0.09 0.09 0.09 0.09 0.09 0.09 0.09 0.09 0.09 0.09 0.09 0.093 0.09 0.09 0.09 0.09 0.09 0.09 0.093 0.115 0.118 0.152 0.204 0.217 0.347 0.591 0.653 0.678 0.687 0.703 0.749 0.796 0.799 0.817 0.839 0.845 0.827 0.845 0.851 0.83 0.876 0.848 0.889 0.975 0.929 0.941 0.913 0.876 0.873 0.904 0.867 0.876 0.851 0.814 0.851 0.799 0.83 0.879 0.845 0.842 0.817 0.802 0.799 0.799 0.796 0.783 0.743 0.613 0.607 0.607 0.607 0.607 0.594 0.502 0.443 0.291 0.155 0.146 0.146 0.139 0.142 0.111)
new loadshape.arqCurvaNormMT2_8 npts=96 interval=0.25 mult=(0.079 0.105 0.144 0.175 0.148 0.07 0.079 0.079 0.096 0.166 0.17 0.144 0.074 0.074 0.074 0.162 0.17 0.14 0.07 0.07 0.07 0.083 0.166 0.166 0.153 0.079 0.079 0.083 0.153 0.17 0.17 0.096 0.297 0.354 0.376 0.445 0.463 0.48 0.485 0.489 0.493 0.485 0.502 0.498 0.507 0.498 0.476 0.459 0.463 0.463 0.459 0.463 0.459 0.459 0.454 0.454 0.454 0.454 0.454 0.459 0.454 0.454 0.454 0.454 0.45 0.428 0.358 0.362 0.384 0.454 0.454 0.362 0.358 0.358 0.38 0.197 0.118 0.1 0.131 0.118 0.153 0.192 0.109 0.092 0.092 0.092 0.183 0.188 0.179 0.175 0.096 0.079 0.079 0.083 0.175 0.162)
new loadshape.arqCurvaNormMT2_9 npts=96 interval=0.25 mult=(0.086 0.079 0.079 0.082 0.089 0.079 0.082 0.089 0.082 0.082 0.093 0.061 0.064 0.061 0.057 0.064 0.057 0.064 0.057 0.057 0.064 0.057 0.057 0.054 0.025 0.032 0.043 0.071 0.114 0.218 0.182 0.204 0.246 0.725 0.75 0.829 0.75 0.775 0.746 0.743 0.739 0.739 0.718 0.736 0.643 0.314 0.343 0.318 0.3 0.254 0.236 0.254 0.207 0.182 0.186 0.175 0.182 0.179 0.139 0.107 0.118 0.132 0.175 0.179 0.125 0.182 0.143 0.1 0.125 0.089 0.075 0.079 0.1 0.104 0.104 0.1 0.104 0.1 0.1 0.1 0.1 0.1 0.1 0.096 0.096 0.089 0.082 0.082 0.082 0.082 0.079 0.082 0.079 0.086 0.082 0.079)
new loadshape.arqCurvaNormMT2_10 npts=96 interval=0.25 mult=(0.039 0.039 0.038 0.038 0.04 0.037 0.039 0.039 0.039 0.039 0.037 0.037 0.037 0.038 0.039 0.037 0.037 0.037 0.039 0.039 0.043 0.043 0.041 0.039 0.036 0.031 0.037 0.05 0.088 0.149 0.225 0.273 0.301 0.295 0.31 0.298 0.29 0.286 0.31 0.255 0.247 0.253 0.229 0.205 0.155 0.112 0.109 0.095 0.109 0.127 0.135 0.133 0.129 0.127 0.126 0.132 0.13 0.127 0.126 0.124 0.12 0.107 0.087 0.105 0.082 0.056 0.036 0.027 0.026 0.028 0.027 0.029 0.035 0.04 0.04 0.038 0.043 0.043 0.043 0.04 0.045 0.043 0.043 0.045 0.042 0.041 0.038 0.041 0.039 0.039 0.036 0.039 0.037 0.039 0.037 0.038)
new loadshape.arqCurvaNormMT2_11 npts=96 interval=0.25 mult=(0.062 0.06 0.062 0.06 0.066 0.062 0.066 0.068 0.059 0.062 0.059 0.057 0.06 0.06 0.062 0.062 0.063 0.065 0.095 0.147 0.185 0.227 0.195 0.198 0.194 0.204 0.256 0.273 0.284 0.263 0.239 0.223 0.217 0.213 0.22 0.207 0.241 0.247 0.244 0.233 0.226 0.208 0.207 0.188 0.226 0.208 0.208 0.226 0.175 0.178 0.168 0.172 0.174 0.164 0.17 0.203 0.187 0.184 0.161 0.171 0.154 0.157 0.162 0.19 0.172 0.115 0.05 0.03 0.03 0.03 0.032 0.032 0.032 0.034 0.034 0.033 0.034 0.034 0.033 0.033 0.034 0.032 0.032 0.032 0.033 0.034 0.034 0.034 0.046 0.065 0.06 0.056 0.059 0.057 0.056 0.056)
new loadshape.arqCurvaNormMT2_12 npts=96 interval=0.25 mult=(0.17 0.188 0.193 0.193 0.193 0.199 0.216 0.193 0.199 0.352 0.386 0.386 0.347 0.239 0.239 0.239 0.301 0.347 0.29 0.267 0.313 0.426 0.551 0.659 0.847 0.938 0.864 0.778 0.795 0.625 0.676 0.574 0.653 0.722 0.614 0.795 0.761 0.648 0.614 0.614 0.75 0.739 0.75 0.756 0.54 0.625 0.608 0.625 0.528 0.591 0.58 0.659 0.761 0.636 0.523 0.528 0.733 0.602 0.545 0.42 0.403 0.472 0.489 0.545 0.426 0.386 0.426 0.517 0.46 0.568 0.54 0.398 0.369 0.381 0.415 0.369 0.398 0.347 0.341 0.341 0.318 0.295 0.284 0.233 0.216 0.216 0.21 0.222 0.21 0.199 0.199 0.193 0.193 0.17 0.176 0.205)