! manter este comentario para compatibilidade do C#
new circuit.alimABDD201 bus1=BMT158195370,basekv=13.8,pu=
