new transformer.1009994 Phases=1,Windings=3,Buses=[BMT155936390.1 BBT91006073.1.0 BBT91006073.0.2],Conns=[wye wye wye],kvs=[7.97 0.12 0.12],kvas=[5 5 5],Taps=[1.0 1 1],XscArray=[1.632,1.632,1.088],%loadloss=2.1 ,%noloadloss=0.7
new transformer.1010337 Phases=1,Windings=3,Buses=[BMT119690400.1 BBT86451558.1.0 BBT86451558.0.2],Conns=[wye wye wye],kvs=[7.97 0.12 0.12],kvas=[5 5 5],Taps=[1.0 1 1],XscArray=[1.632,1.632,1.088],%loadloss=2.1 ,%noloadloss=0.7
new transformer.1022622 Phases=1,Windings=3,Buses=[BMT119695174.1 BBT98978478.1.0 BBT98978478.0.2],Conns=[wye wye wye],kvs=[7.97 0.12 0.12],kvas=[15 15 15],Taps=[1.0 1 1],XscArray=[2.124,2.124,1.416],%loadloss=1.766666667 ,%noloadloss=0.433333333
new transformer.1022944 Phases=1,Windings=3,Buses=[BMT119690960.1 BBT92816035.1.0 BBT92816035.0.2],Conns=[wye wye wye],kvs=[7.97 0.12 0.12],kvas=[5 5 5],Taps=[1.0 1 1],XscArray=[1.632,1.632,1.088],%loadloss=2.1 ,%noloadloss=0.7
new transformer.1023630 Phases=1,Windings=3,Buses=[BMT155937083.1 BBT93131560.1.0 BBT93131560.0.2],Conns=[wye wye wye],kvs=[7.97 0.12 0.12],kvas=[5 5 5],Taps=[1.0 1 1],XscArray=[1.632,1.632,1.088],%loadloss=2.1 ,%noloadloss=0.7
new transformer.1024176 Phases=1,Windings=3,Buses=[BMT155936075.1 BBT93366186.1.0 BBT93366186.0.2],Conns=[wye wye wye],kvs=[7.97 0.12 0.12],kvas=[5 5 5],Taps=[1.0 1 1],XscArray=[1.632,1.632,1.088],%loadloss=2.1 ,%noloadloss=0.7
new transformer.1036139 Phases=1,Windings=3,Buses=[BMT158755827.1 BBT102213535.1.0 BBT102213535.0.2],Conns=[wye wye wye],kvs=[7.97 0.12 0.12],kvas=[5 5 5],Taps=[1.0 1 1],XscArray=[1.632,1.632,1.088],%loadloss=2.1 ,%noloadloss=0.7
new transformer.1114672 Phases=1,Windings=3,Buses=[BMT155936019.1 BBT145451933.1.0 BBT145451933.0.2],Conns=[wye wye wye],kvs=[7.97 0.12 0.12],kvas=[10 10 10],Taps=[1.0 1 1],XscArray=[1.872,1.872,1.248],%loadloss=1.95 ,%noloadloss=0.5
new transformer.1114763 Phases=1,Windings=3,Buses=[BMT160758838.1 BBT145469517.1.0 BBT145469517.0.2],Conns=[wye wye wye],kvs=[7.97 0.12 0.12],kvas=[10 10 10],Taps=[1.0 1 1],XscArray=[1.872,1.872,1.248],%loadloss=1.95 ,%noloadloss=0.5
new transformer.1114847 Phases=1,Windings=3,Buses=[BMT145482565.1 BBT145482061.1.0 BBT145482061.0.2],Conns=[wye wye wye],kvs=[7.97 0.12 0.12],kvas=[10 10 10],Taps=[1.0 1 1],XscArray=[1.872,1.872,1.248],%loadloss=1.95 ,%noloadloss=0.5
new transformer.1391321 Phases=3,Windings=2,Buses=[BMT148367462.1.2.3 BBT148362674.1.2.3.0],Conns=[delta wye],kvs=[13.80 0.220],kvas=[45 45],Taps=[1.0 1],XHL=3.64,%loadloss=1.666666667 ,%noloadloss=0.433333333
new transformer.1391665 Phases=1,Windings=3,Buses=[BMT160297618.1 BBT148441677.1.0 BBT148441677.0.2],Conns=[wye wye wye],kvs=[7.97 0.12 0.12],kvas=[10 10 10],Taps=[1.0 1 1],XscArray=[1.872,1.872,1.248],%loadloss=1.95 ,%noloadloss=0.5
new transformer.1403220 Phases=1,Windings=3,Buses=[BMT162065421.1 BBT151210900.1.0 BBT151210900.0.2],Conns=[wye wye wye],kvs=[7.97 0.12 0.12],kvas=[10 10 10],Taps=[1.0 1 1],XscArray=[1.872,1.872,1.248],%loadloss=1.95 ,%noloadloss=0.5
new transformer.1403417 Phases=1,Windings=3,Buses=[BMT161793968.1 BBT151265135.1.0 BBT151265135.0.2],Conns=[wye wye wye],kvs=[7.97 0.12 0.12],kvas=[10 10 10],Taps=[1.0 1 1],XscArray=[1.872,1.872,1.248],%loadloss=1.95 ,%noloadloss=0.5
new transformer.1412236 Phases=1,Windings=3,Buses=[BMT160758835.1 BBT153268182.1.0 BBT153268182.0.2],Conns=[wye wye wye],kvs=[7.97 0.12 0.12],kvas=[10 10 10],Taps=[1.0 1 1],XscArray=[1.872,1.872,1.248],%loadloss=1.95 ,%noloadloss=0.5
new transformer.1412282 Phases=1,Windings=3,Buses=[BMT153276405.1 BBT153276068.1.0 BBT153276068.0.2],Conns=[wye wye wye],kvs=[7.97 0.12 0.12],kvas=[10 10 10],Taps=[1.0 1 1],XscArray=[1.872,1.872,1.248],%loadloss=1.95 ,%noloadloss=0.5
new transformer.1008678 Phases=1,Windings=3,Buses=[BMT155936412.1 BBT90712479.1.0 BBT90712479.0.2],Conns=[wye wye wye],kvs=[7.97 0.12 0.12],kvas=[5 5 5],Taps=[1.0 1 1],XscArray=[1.632,1.632,1.088],%loadloss=2.1 ,%noloadloss=0.7
new transformer.1009532 Phases=1,Windings=3,Buses=[BMT119704253.1 BBT93137692.1.0 BBT93137692.0.2],Conns=[wye wye wye],kvs=[7.97 0.12 0.12],kvas=[5 5 5],Taps=[1.0 1 1],XscArray=[1.632,1.632,1.088],%loadloss=2.1 ,%noloadloss=0.7
new transformer.1009826 Phases=1,Windings=3,Buses=[BMT155936389.1 BBT91001376.1.0 BBT91001376.0.2],Conns=[wye wye wye],kvs=[7.97 0.12 0.12],kvas=[10 10 10],Taps=[1.0 1 1],XscArray=[1.872,1.872,1.248],%loadloss=1.95 ,%noloadloss=0.5
new transformer.1009882 Phases=1,Windings=3,Buses=[BMT155935933.1 BBT86238485.1.0 BBT86238485.0.2],Conns=[wye wye wye],kvs=[7.97 0.12 0.12],kvas=[5 5 5],Taps=[1.0 1 1],XscArray=[1.632,1.632,1.088],%loadloss=2.1 ,%noloadloss=0.7
new transformer.1020879 Phases=1,Windings=3,Buses=[BMT155936034.1 BBT91674951.1.0 BBT91674951.0.2],Conns=[wye wye wye],kvs=[7.97 0.12 0.12],kvas=[5 5 5],Taps=[1.0 1 1],XscArray=[1.632,1.632,1.088],%loadloss=2.1 ,%noloadloss=0.7
new transformer.1020942 Phases=1,Windings=3,Buses=[BMT155936040.1 BBT91700319.1.0 BBT91700319.0.2],Conns=[wye wye wye],kvs=[7.97 0.12 0.12],kvas=[15 15 15],Taps=[1.0 1 1],XscArray=[2.124,2.124,1.416],%loadloss=1.766666667 ,%noloadloss=0.433333333
new transformer.1021040 Phases=1,Windings=3,Buses=[BMT155936038.1 BBT91750719.1.0 BBT91750719.0.2],Conns=[wye wye wye],kvs=[7.97 0.12 0.12],kvas=[10 10 10],Taps=[1.0 1 1],XscArray=[1.872,1.872,1.248],%loadloss=1.95 ,%noloadloss=0.5
new transformer.1022405 Phases=1,Windings=3,Buses=[BMT161495815.1 BBT102129878.1.0 BBT102129878.0.2],Conns=[wye wye wye],kvs=[7.97 0.12 0.12],kvas=[5 5 5],Taps=[1.0 1 1],XscArray=[1.632,1.632,1.088],%loadloss=2.1 ,%noloadloss=0.7
new transformer.1087365 Phases=1,Windings=3,Buses=[BMT160758840.1 BBT138184435.1.0 BBT138184435.0.2],Conns=[wye wye wye],kvs=[7.97 0.12 0.12],kvas=[5 5 5],Taps=[1.0 1 1],XscArray=[1.632,1.632,1.088],%loadloss=2.1 ,%noloadloss=0.7
new transformer.1113398 Phases=1,Windings=3,Buses=[BMT160297617.1 BBT145168909.1.0 BBT145168909.0.2],Conns=[wye wye wye],kvs=[7.97 0.12 0.12],kvas=[10 10 10],Taps=[1.0 1 1],XscArray=[1.872,1.872,1.248],%loadloss=1.95 ,%noloadloss=0.5
new transformer.1411692 Phases=1,Windings=3,Buses=[BMT162335974.1 BBT153190367.1.0 BBT153190367.0.2],Conns=[wye wye wye],kvs=[7.97 0.12 0.12],kvas=[10 10 10],Taps=[1.0 1 1],XscArray=[1.872,1.872,1.248],%loadloss=1.95 ,%noloadloss=0.5
new transformer.1417141 Phases=1,Windings=3,Buses=[BMT162915513.1 BBT154428706.1.0 BBT154428706.0.2],Conns=[wye wye wye],kvs=[7.97 0.12 0.12],kvas=[15 15 15],Taps=[1.0 1 1],XscArray=[2.124,2.124,1.416],%loadloss=1.766666667 ,%noloadloss=0.433333333
new transformer.1420381 Phases=1,Windings=3,Buses=[BMT165916841.1 BBT155137116.1.0 BBT155137116.0.2],Conns=[wye wye wye],kvs=[7.97 0.12 0.12],kvas=[10 10 10],Taps=[1.0 1 1],XscArray=[1.872,1.872,1.248],%loadloss=1.95 ,%noloadloss=0.5
new transformer.1420619 Phases=1,Windings=3,Buses=[BMT158524328.1 BBT155182414.1.0 BBT155182414.0.2],Conns=[wye wye wye],kvs=[7.97 0.12 0.12],kvas=[10 10 10],Taps=[1.0 1 1],XscArray=[1.872,1.872,1.248],%loadloss=1.95 ,%noloadloss=0.5
new transformer.1420626 Phases=1,Windings=3,Buses=[BMT163058223.1 BBT155183208.1.0 BBT155183208.0.2],Conns=[wye wye wye],kvs=[7.97 0.12 0.12],kvas=[10 10 10],Taps=[1.0 1 1],XscArray=[1.872,1.872,1.248],%loadloss=1.95 ,%noloadloss=0.5
new transformer.1420642 Phases=1,Windings=3,Buses=[BMT158501361.1 BBT155186950.1.0 BBT155186950.0.2],Conns=[wye wye wye],kvs=[7.97 0.12 0.12],kvas=[10 10 10],Taps=[1.0 1 1],XscArray=[1.872,1.872,1.248],%loadloss=1.95 ,%noloadloss=0.5
new transformer.1011541 Phases=1,Windings=3,Buses=[BMT161498824.1 BBT87786808.1.0 BBT87786808.0.2],Conns=[wye wye wye],kvs=[7.97 0.12 0.12],kvas=[10 10 10],Taps=[1.0 1 1],XscArray=[1.872,1.872,1.248],%loadloss=1.95 ,%noloadloss=0.5
new transformer.1012605 Phases=1,Windings=3,Buses=[BMT163741000.1 BBT87365254.1.0 BBT87365254.0.2],Conns=[wye wye wye],kvs=[7.97 0.12 0.12],kvas=[10 10 10],Taps=[1.0 1 1],XscArray=[1.872,1.872,1.248],%loadloss=1.95 ,%noloadloss=0.5
new transformer.1012955 Phases=1,Windings=3,Buses=[BMT161498825.1 BBT87787417.1.0 BBT87787417.0.2],Conns=[wye wye wye],kvs=[7.97 0.12 0.12],kvas=[5 5 5],Taps=[1.0 1 1],XscArray=[1.632,1.632,1.088],%loadloss=2.1 ,%noloadloss=0.7
new transformer.1012962 Phases=1,Windings=3,Buses=[BMT135924268.1 BBT87787480.1.0 BBT87787480.0.2],Conns=[wye wye wye],kvs=[7.97 0.12 0.12],kvas=[5 5 5],Taps=[1.0 1 1],XscArray=[1.632,1.632,1.088],%loadloss=2.1 ,%noloadloss=0.7
new transformer.1078244 Phases=1,Windings=3,Buses=[BMT161352778.1 BBT135541956.1.0 BBT135541956.0.2],Conns=[wye wye wye],kvs=[7.97 0.12 0.12],kvas=[10 10 10],Taps=[1.0 1 1],XscArray=[1.872,1.872,1.248],%loadloss=1.95 ,%noloadloss=0.5
new transformer.1079371 Phases=1,Windings=3,Buses=[BMT135924275.1 BBT135924282.1.0 BBT135924282.0.2],Conns=[wye wye wye],kvs=[7.97 0.12 0.12],kvas=[5 5 5],Taps=[1.0 1 1],XscArray=[1.632,1.632,1.088],%loadloss=2.1 ,%noloadloss=0.7
new transformer.1093028 Phases=1,Windings=3,Buses=[BMT155936264.1 BBT139830667.1.0 BBT139830667.0.2],Conns=[wye wye wye],kvs=[7.97 0.12 0.12],kvas=[10 10 10],Taps=[1.0 1 1],XscArray=[1.872,1.872,1.248],%loadloss=1.95 ,%noloadloss=0.5
new transformer.1107357 Phases=1,Windings=3,Buses=[BMT155936890.1 BBT143641215.1.0 BBT143641215.0.2],Conns=[wye wye wye],kvs=[7.97 0.12 0.12],kvas=[5 5 5],Taps=[1.0 1 1],XscArray=[1.632,1.632,1.088],%loadloss=2.1 ,%noloadloss=0.7
new transformer.1123359 Phases=1,Windings=3,Buses=[BMT160758842.1 BBT147688468.1.0 BBT147688468.0.2],Conns=[wye wye wye],kvs=[7.97 0.12 0.12],kvas=[10 10 10],Taps=[1.0 1 1],XscArray=[1.872,1.872,1.248],%loadloss=1.95 ,%noloadloss=0.5
new transformer.1402257 Phases=3,Windings=2,Buses=[BMT161352783.1.2.3 BBT150988712.1.2.3.0],Conns=[delta wye],kvs=[13.80 0.220],kvas=[75 75],Taps=[1.0 1],XHL=3.72,%loadloss=1.466666667 ,%noloadloss=0.393333333
new transformer.1409291 Phases=1,Windings=3,Buses=[BMT161256205.1 BBT152682236.1.0 BBT152682236.0.2],Conns=[wye wye wye],kvs=[7.97 0.12 0.12],kvas=[10 10 10],Taps=[1.0 1 1],XscArray=[1.872,1.872,1.248],%loadloss=1.95 ,%noloadloss=0.5
new transformer.1409679 Phases=1,Windings=3,Buses=[BMT155936949.1 BBT152765901.1.0 BBT152765901.0.2],Conns=[wye wye wye],kvs=[7.97 0.12 0.12],kvas=[10 10 10],Taps=[1.0 1 1],XscArray=[1.872,1.872,1.248],%loadloss=1.95 ,%noloadloss=0.5
new transformer.1419372 Phases=1,Windings=3,Buses=[BMT162997927.1 BBT154913841.1.0 BBT154913841.0.2],Conns=[wye wye wye],kvs=[7.97 0.12 0.12],kvas=[10 10 10],Taps=[1.0 1 1],XscArray=[1.872,1.872,1.248],%loadloss=1.95 ,%noloadloss=0.5
new transformer.1423682 Phases=3,Windings=2,Buses=[BMT165916856.1.2.3 BBT155829767.1.2.3.0],Conns=[delta wye],kvs=[13.80 0.220],kvas=[45 45],Taps=[1.0 1],XHL=3.64,%loadloss=1.666666667 ,%noloadloss=0.433333333
new transformer.1423683 Phases=3,Windings=2,Buses=[BMT165916855.1.2.3 BBT155829858.1.2.3.0],Conns=[delta wye],kvs=[13.80 0.220],kvas=[45 45],Taps=[1.0 1],XHL=3.64,%loadloss=1.666666667 ,%noloadloss=0.433333333
new transformer.1423700 Phases=3,Windings=2,Buses=[BMT165916853.1.2.3 BBT155833254.1.2.3.0],Conns=[delta wye],kvs=[13.80 0.220],kvas=[45 45],Taps=[1.0 1],XHL=3.64,%loadloss=1.666666667 ,%noloadloss=0.433333333
new transformer.1006865 Phases=1,Windings=3,Buses=[BMT161495834.1 BBT90896894.1.0 BBT90896894.0.2],Conns=[wye wye wye],kvs=[7.97 0.12 0.12],kvas=[5 5 5],Taps=[1.0 1 1],XscArray=[1.632,1.632,1.088],%loadloss=2.1 ,%noloadloss=0.7
new transformer.1007474 Phases=1,Windings=3,Buses=[BMT163815022.1 BBT92436194.1.0 BBT92436194.0.2],Conns=[wye wye wye],kvs=[7.97 0.12 0.12],kvas=[5 5 5],Taps=[1.0 1 1],XscArray=[1.632,1.632,1.088],%loadloss=2.1 ,%noloadloss=0.7
new transformer.1007803 Phases=1,Windings=3,Buses=[BMT155937190.1 BBT92928294.1.0 BBT92928294.0.2],Conns=[wye wye wye],kvs=[7.97 0.12 0.12],kvas=[5 5 5],Taps=[1.0 1 1],XscArray=[1.632,1.632,1.088],%loadloss=2.1 ,%noloadloss=0.7
new transformer.1019423 Phases=1,Windings=3,Buses=[BMT163324029.1 BBT91103793.1.0 BBT91103793.0.2],Conns=[wye wye wye],kvs=[7.97 0.12 0.12],kvas=[5 5 5],Taps=[1.0 1 1],XscArray=[1.632,1.632,1.088],%loadloss=2.1 ,%noloadloss=0.7
new transformer.1058077 Phases=3,Windings=2,Buses=[BMT163104199.1.2.3 BBT128053272.1.2.3.0],Conns=[delta wye],kvs=[13.80 0.220],kvas=[75 75],Taps=[1.0 1],XHL=3.72,%loadloss=1.466666667 ,%noloadloss=0.393333333
new transformer.1058105 Phases=3,Windings=2,Buses=[BMT163104200.1.2.3 BBT128069715.1.2.3.0],Conns=[delta wye],kvs=[13.80 0.220],kvas=[45 45],Taps=[1.0 1],XHL=3.64,%loadloss=1.666666667 ,%noloadloss=0.433333333
new transformer.1070761 Phases=1,Windings=3,Buses=[BMT155937171.1 BBT133416441.1.0 BBT133416441.0.2],Conns=[wye wye wye],kvs=[7.97 0.12 0.12],kvas=[5 5 5],Taps=[1.0 1 1],XscArray=[1.632,1.632,1.088],%loadloss=2.1 ,%noloadloss=0.7
new transformer.1082010 Phases=1,Windings=3,Buses=[BMT155936888.1 BBT136865803.1.0 BBT136865803.0.2],Conns=[wye wye wye],kvs=[7.97 0.12 0.12],kvas=[5 5 5],Taps=[1.0 1 1],XscArray=[1.632,1.632,1.088],%loadloss=2.1 ,%noloadloss=0.7
new transformer.1094869 Phases=1,Windings=3,Buses=[BMT140203018.1 BBT140203025.1.0 BBT140203025.0.2],Conns=[wye wye wye],kvs=[7.97 0.12 0.12],kvas=[37,5 37,5 37,5],Taps=[1.0 1 1],XscArray=[2.472,2.472,1.648],%loadloss=1.413333333 ,%noloadloss=0.36
new transformer.1106573 Phases=1,Windings=3,Buses=[BMT163162955.1 BBT143380059.1.0 BBT143380059.0.2],Conns=[wye wye wye],kvs=[7.97 0.12 0.12],kvas=[5 5 5],Taps=[1.0 1 1],XscArray=[1.632,1.632,1.088],%loadloss=2.1 ,%noloadloss=0.7
new transformer.1395323 Phases=1,Windings=3,Buses=[BMT149279215.1 BBT149278808.1.0 BBT149278808.0.2],Conns=[wye wye wye],kvs=[7.97 0.12 0.12],kvas=[10 10 10],Taps=[1.0 1 1],XscArray=[1.872,1.872,1.248],%loadloss=1.95 ,%noloadloss=0.5
new transformer.1395440 Phases=1,Windings=3,Buses=[BMT164240047.1 BBT149304026.1.0 BBT149304026.0.2],Conns=[wye wye wye],kvs=[7.97 0.12 0.12],kvas=[10 10 10],Taps=[1.0 1 1],XscArray=[1.872,1.872,1.248],%loadloss=1.95 ,%noloadloss=0.5
new transformer.1413258 Phases=1,Windings=3,Buses=[BMT160555205.1 BBT153484520.1.0 BBT153484520.0.2],Conns=[wye wye wye],kvs=[7.97 0.12 0.12],kvas=[10 10 10],Taps=[1.0 1 1],XscArray=[1.872,1.872,1.248],%loadloss=1.95 ,%noloadloss=0.5
new transformer.1416366 Phases=1,Windings=3,Buses=[BMT156328732.1 BBT154256279.1.0 BBT154256279.0.2],Conns=[wye wye wye],kvs=[7.97 0.12 0.12],kvas=[10 10 10],Taps=[1.0 1 1],XscArray=[1.872,1.872,1.248],%loadloss=1.95 ,%noloadloss=0.5
new transformer.1427449 Phases=1,Windings=3,Buses=[BMT156665061.1 BBT156664642.1.0 BBT156664642.0.2],Conns=[wye wye wye],kvs=[7.97 0.12 0.12],kvas=[37,5 37,5 37,5],Taps=[1.0 1 1],XscArray=[2.472,2.472,1.648],%loadloss=1.413333333 ,%noloadloss=0.36
new transformer.1432791 Phases=1,Windings=3,Buses=[BMT157770930.1 BBT157770255.1.0 BBT157770255.0.2],Conns=[wye wye wye],kvs=[7.97 0.12 0.12],kvas=[10 10 10],Taps=[1.0 1 1],XscArray=[1.872,1.872,1.248],%loadloss=1.95 ,%noloadloss=0.5
new transformer.1016315 Phases=1,Windings=3,Buses=[BMT155936036.1 BBT91259340.1.0 BBT91259340.0.2],Conns=[wye wye wye],kvs=[7.97 0.12 0.12],kvas=[5 5 5],Taps=[1.0 1 1],XscArray=[1.632,1.632,1.088],%loadloss=2.1 ,%noloadloss=0.7
new transformer.1068619 Phases=3,Windings=2,Buses=[BMT155937251.1.2.3 BBT132769375.1.2.3.0],Conns=[delta wye],kvs=[13.80 0.220],kvas=[45 45],Taps=[1.0 1],XHL=3.64,%loadloss=1.666666667 ,%noloadloss=0.433333333
new transformer.1084047 Phases=1,Windings=3,Buses=[BMT159946574.1 BBT137524048.1.0 BBT137524048.0.2],Conns=[wye wye wye],kvs=[7.97 0.12 0.12],kvas=[5 5 5],Taps=[1.0 1 1],XscArray=[1.632,1.632,1.088],%loadloss=2.1 ,%noloadloss=0.7
new transformer.1109674 Phases=1,Windings=3,Buses=[BMT161708339.1 BBT144268485.1.0 BBT144268485.0.2],Conns=[wye wye wye],kvs=[7.97 0.12 0.12],kvas=[5 5 5],Taps=[1.0 1 1],XscArray=[1.632,1.632,1.088],%loadloss=2.1 ,%noloadloss=0.7
new transformer.1109807 Phases=3,Windings=2,Buses=[BMT151497203.1.2.3 BBT144311549.1.2.3.0],Conns=[delta wye],kvs=[13.80 0.220],kvas=[45 45],Taps=[1.0 1],XHL=3.64,%loadloss=1.666666667 ,%noloadloss=0.433333333
new transformer.1390455 Phases=1,Windings=3,Buses=[BMT163965419.1 BBT148129912.1.0 BBT148129912.0.2],Conns=[wye wye wye],kvs=[7.97 0.12 0.12],kvas=[10 10 10],Taps=[1.0 1 1],XscArray=[1.872,1.872,1.248],%loadloss=1.95 ,%noloadloss=0.5
new transformer.1397042 Phases=1,Windings=3,Buses=[BMT162335978.1 BBT149690830.1.0 BBT149690830.0.2],Conns=[wye wye wye],kvs=[7.97 0.12 0.12],kvas=[10 10 10],Taps=[1.0 1 1],XscArray=[1.872,1.872,1.248],%loadloss=1.95 ,%noloadloss=0.5
new transformer.1397294 Phases=1,Windings=3,Buses=[BMT155936059.1 BBT149745862.1.0 BBT149745862.0.2],Conns=[wye wye wye],kvs=[7.97 0.12 0.12],kvas=[15 15 15],Taps=[1.0 1 1],XscArray=[2.124,2.124,1.416],%loadloss=1.766666667 ,%noloadloss=0.433333333
new transformer.1397295 Phases=1,Windings=3,Buses=[BMT155936060.1 BBT149746021.1.0 BBT149746021.0.2],Conns=[wye wye wye],kvs=[7.97 0.12 0.12],kvas=[15 15 15],Taps=[1.0 1 1],XscArray=[2.124,2.124,1.416],%loadloss=1.766666667 ,%noloadloss=0.433333333
new transformer.1409830 Phases=1,Windings=3,Buses=[BMT155936334.1 BBT152799235.1.0 BBT152799235.0.2],Conns=[wye wye wye],kvs=[7.97 0.12 0.12],kvas=[10 10 10],Taps=[1.0 1 1],XscArray=[1.872,1.872,1.248],%loadloss=1.95 ,%noloadloss=0.5
new transformer.1409834 Phases=1,Windings=3,Buses=[BMT164173898.1 BBT152801047.1.0 BBT152801047.0.2],Conns=[wye wye wye],kvs=[7.97 0.12 0.12],kvas=[37,5 37,5 37,5],Taps=[1.0 1 1],XscArray=[2.472,2.472,1.648],%loadloss=1.413333333 ,%noloadloss=0.36
new transformer.1420031 Phases=1,Windings=3,Buses=[BMT165387289.1 BBT155065740.1.0 BBT155065740.0.2],Conns=[wye wye wye],kvs=[7.97 0.12 0.12],kvas=[10 10 10],Taps=[1.0 1 1],XscArray=[1.872,1.872,1.248],%loadloss=1.95 ,%noloadloss=0.5
new transformer.1424759 Phases=1,Windings=3,Buses=[BMT156052832.1 BBT156052834.1.0 BBT156052834.0.2],Conns=[wye wye wye],kvs=[7.97 0.12 0.12],kvas=[5 5 5],Taps=[1.0 1 1],XscArray=[1.632,1.632,1.088],%loadloss=2.1 ,%noloadloss=0.7
new transformer.1435764 Phases=1,Windings=3,Buses=[BMT159510834.1 BBT158321670.1.0 BBT158321670.0.2],Conns=[wye wye wye],kvs=[7.97 0.12 0.12],kvas=[10 10 10],Taps=[1.0 1 1],XscArray=[1.872,1.872,1.248],%loadloss=1.95 ,%noloadloss=0.5
new transformer.1442376 Phases=1,Windings=3,Buses=[BMT164641014.1 BBT159653323.1.0 BBT159653323.0.2],Conns=[wye wye wye],kvs=[7.97 0.12 0.12],kvas=[10 10 10],Taps=[1.0 1 1],XscArray=[1.872,1.872,1.248],%loadloss=1.95 ,%noloadloss=0.5
new transformer.1442615 Phases=1,Windings=3,Buses=[BMT161826814.1 BBT159692076.1.0 BBT159692076.0.2],Conns=[wye wye wye],kvs=[7.97 0.12 0.12],kvas=[10 10 10],Taps=[1.0 1 1],XscArray=[1.872,1.872,1.248],%loadloss=1.95 ,%noloadloss=0.5
new transformer.1001671 Phases=3,Windings=2,Buses=[BMT155176330.1.2.3 BBT99463585.1.2.3.0],Conns=[delta wye],kvs=[13.80 0.220],kvas=[30 30],Taps=[1.0 1],XHL=3.56,%loadloss=1.816666666 ,%noloadloss=0.5
new transformer.1014866 Phases=1,Windings=3,Buses=[BMT119703805.1 BBT90110843.1.0 BBT90110843.0.2],Conns=[wye wye wye],kvs=[7.97 0.12 0.12],kvas=[5 5 5],Taps=[1.0 1 1],XscArray=[1.632,1.632,1.088],%loadloss=2.1 ,%noloadloss=0.7
new transformer.1015566 Phases=1,Windings=3,Buses=[BMT119702524.1 BBT91789240.1.0 BBT91789240.0.2],Conns=[wye wye wye],kvs=[7.97 0.12 0.12],kvas=[5 5 5],Taps=[1.0 1 1],XscArray=[1.632,1.632,1.088],%loadloss=2.1 ,%noloadloss=0.7
new transformer.1015629 Phases=1,Windings=3,Buses=[BMT119701845.1 BBT91805018.1.0 BBT91805018.0.2],Conns=[wye wye wye],kvs=[7.97 0.12 0.12],kvas=[5 5 5],Taps=[1.0 1 1],XscArray=[1.632,1.632,1.088],%loadloss=2.1 ,%noloadloss=0.7
new transformer.1015895 Phases=1,Windings=3,Buses=[BMT119703385.1 BBT91146633.1.0 BBT91146633.0.2],Conns=[wye wye wye],kvs=[7.97 0.12 0.12],kvas=[5 5 5],Taps=[1.0 1 1],XscArray=[1.632,1.632,1.088],%loadloss=2.1 ,%noloadloss=0.7
new transformer.1067744 Phases=3,Windings=2,Buses=[BMT153484251.1.2.3 BBT132369997.1.2.3.0],Conns=[delta wye],kvs=[13.80 0.220],kvas=[45 45],Taps=[1.0 1],XHL=3.64,%loadloss=1.666666667 ,%noloadloss=0.433333333
new transformer.1091481 Phases=1,Windings=3,Buses=[BMT159946575.1 BBT139232335.1.0 BBT139232335.0.2],Conns=[wye wye wye],kvs=[7.97 0.12 0.12],kvas=[10 10 10],Taps=[1.0 1 1],XscArray=[1.872,1.872,1.248],%loadloss=1.95 ,%noloadloss=0.5
new transformer.1115652 Phases=1,Windings=3,Buses=[BMT158755804.1 BBT145710821.1.0 BBT145710821.0.2],Conns=[wye wye wye],kvs=[7.97 0.12 0.12],kvas=[10 10 10],Taps=[1.0 1 1],XscArray=[1.872,1.872,1.248],%loadloss=1.95 ,%noloadloss=0.5
new transformer.1422632 Phases=1,Windings=3,Buses=[BMT158517256.1 BBT155634648.1.0 BBT155634648.0.2],Conns=[wye wye wye],kvs=[7.97 0.12 0.12],kvas=[10 10 10],Taps=[1.0 1 1],XscArray=[1.872,1.872,1.248],%loadloss=1.95 ,%noloadloss=0.5
new transformer.1422708 Phases=1,Windings=3,Buses=[BMT158517257.1 BBT155648583.1.0 BBT155648583.0.2],Conns=[wye wye wye],kvs=[7.97 0.12 0.12],kvas=[10 10 10],Taps=[1.0 1 1],XscArray=[1.872,1.872,1.248],%loadloss=1.95 ,%noloadloss=0.5
new transformer.1438202 Phases=1,Windings=3,Buses=[BMT162525425.1 BBT158785058.1.0 BBT158785058.0.2],Conns=[wye wye wye],kvs=[7.97 0.12 0.12],kvas=[37,5 37,5 37,5],Taps=[1.0 1 1],XscArray=[2.472,2.472,1.648],%loadloss=1.413333333 ,%noloadloss=0.36
new transformer.1442746 Phases=1,Windings=3,Buses=[BMT160609064.1 BBT159720713.1.0 BBT159720713.0.2],Conns=[wye wye wye],kvs=[7.97 0.12 0.12],kvas=[10 10 10],Taps=[1.0 1 1],XscArray=[1.872,1.872,1.248],%loadloss=1.95 ,%noloadloss=0.5
new transformer.1442752 Phases=1,Windings=3,Buses=[BMT160599647.1 BBT159721572.1.0 BBT159721572.0.2],Conns=[wye wye wye],kvs=[7.97 0.12 0.12],kvas=[10 10 10],Taps=[1.0 1 1],XscArray=[1.872,1.872,1.248],%loadloss=1.95 ,%noloadloss=0.5
new transformer.1447114 Phases=1,Windings=3,Buses=[BMT161026015.1 BBT161012591.1.0 BBT161012591.0.2],Conns=[wye wye wye],kvs=[7.97 0.12 0.12],kvas=[10 10 10],Taps=[1.0 1 1],XscArray=[1.872,1.872,1.248],%loadloss=1.95 ,%noloadloss=0.5
new transformer.144715 Phases=3,Windings=2,Buses=[BMT155935544.1.2.3 BBT814503.1.2.3.0],Conns=[delta wye],kvs=[13.80 0.220],kvas=[45 45],Taps=[1.0 1],XHL=3.64,%loadloss=1.666666667 ,%noloadloss=0.433333333
new transformer.1447165 Phases=1,Windings=3,Buses=[BMT161020697.1 BBT161019821.1.0 BBT161019821.0.2],Conns=[wye wye wye],kvs=[7.97 0.12 0.12],kvas=[10 10 10],Taps=[1.0 1 1],XscArray=[1.872,1.872,1.248],%loadloss=1.95 ,%noloadloss=0.5
new transformer.1412446 Phases=1,Windings=3,Buses=[BMT162525426.1 BBT153303588.1.0 BBT153303588.0.2],Conns=[wye wye wye],kvs=[7.97 0.12 0.12],kvas=[37,5 37,5 37,5],Taps=[1.0 1 1],XscArray=[2.472,2.472,1.648],%loadloss=1.413333333 ,%noloadloss=0.36
new transformer.1412454 Phases=1,Windings=3,Buses=[BMT162524981.1 BBT153304808.1.0 BBT153304808.0.2],Conns=[wye wye wye],kvs=[7.97 0.12 0.12],kvas=[37,5 37,5 37,5],Taps=[1.0 1 1],XscArray=[2.472,2.472,1.648],%loadloss=1.413333333 ,%noloadloss=0.36
new transformer.1412618 Phases=1,Windings=3,Buses=[BMT153334256.1 BBT153334257.1.0 BBT153334257.0.2],Conns=[wye wye wye],kvs=[7.97 0.12 0.12],kvas=[10 10 10],Taps=[1.0 1 1],XscArray=[1.872,1.872,1.248],%loadloss=1.95 ,%noloadloss=0.5
new transformer.1418694 Phases=1,Windings=3,Buses=[BMT157315710.1 BBT154773484.1.0 BBT154773484.0.2],Conns=[wye wye wye],kvs=[7.97 0.12 0.12],kvas=[10 10 10],Taps=[1.0 1 1],XscArray=[1.872,1.872,1.248],%loadloss=1.95 ,%noloadloss=0.5
new transformer.1430861 Phases=1,Windings=3,Buses=[BMT157397052.1 BBT157397053.1.0 BBT157397053.0.2],Conns=[wye wye wye],kvs=[7.97 0.12 0.12],kvas=[10 10 10],Taps=[1.0 1 1],XscArray=[1.872,1.872,1.248],%loadloss=1.95 ,%noloadloss=0.5
new transformer.1436378 Phases=1,Windings=3,Buses=[BMT158428896.1 BBT158428746.1.0 BBT158428746.0.2],Conns=[wye wye wye],kvs=[7.97 0.12 0.12],kvas=[10 10 10],Taps=[1.0 1 1],XscArray=[1.872,1.872,1.248],%loadloss=1.95 ,%noloadloss=0.5
new transformer.1436384 Phases=1,Windings=3,Buses=[BMT158429853.1 BBT158429759.1.0 BBT158429759.0.2],Conns=[wye wye wye],kvs=[7.97 0.12 0.12],kvas=[10 10 10],Taps=[1.0 1 1],XscArray=[1.872,1.872,1.248],%loadloss=1.95 ,%noloadloss=0.5
new transformer.1436393 Phases=1,Windings=3,Buses=[BMT159538125.1 BBT158430632.1.0 BBT158430632.0.2],Conns=[wye wye wye],kvs=[7.97 0.12 0.12],kvas=[10 10 10],Taps=[1.0 1 1],XscArray=[1.872,1.872,1.248],%loadloss=1.95 ,%noloadloss=0.5
new transformer.144778 Phases=1,Windings=3,Buses=[BMT155935585.1 BBT815546.1.0 BBT815546.0.2],Conns=[wye wye wye],kvs=[7.97 0.12 0.12],kvas=[15 15 15],Taps=[1.0 1 1],XscArray=[2.124,2.124,1.416],%loadloss=1.766666667 ,%noloadloss=0.433333333
new transformer.144785 Phases=1,Windings=3,Buses=[BMT155935584.1 BBT815588.1.0 BBT815588.0.2],Conns=[wye wye wye],kvs=[7.97 0.12 0.12],kvas=[37,5 37,5 37,5],Taps=[1.0 1 1],XscArray=[2.472,2.472,1.648],%loadloss=1.413333333 ,%noloadloss=0.36
new transformer.144799 Phases=3,Windings=2,Buses=[BMT155935571.1.2.3 BBT815714.1.2.3.0],Conns=[delta wye],kvs=[13.80 0.220],kvas=[45 45],Taps=[1.0 1],XHL=3.64,%loadloss=1.666666667 ,%noloadloss=0.433333333
new transformer.1448034 Phases=1,Windings=3,Buses=[BMT161217637.1 BBT161217203.1.0 BBT161217203.0.2],Conns=[wye wye wye],kvs=[7.97 0.12 0.12],kvas=[10 10 10],Taps=[1.0 1 1],XscArray=[1.872,1.872,1.248],%loadloss=1.95 ,%noloadloss=0.5
new transformer.1448040 Phases=1,Windings=3,Buses=[BMT161495836.1 BBT161219331.1.0 BBT161219331.0.2],Conns=[wye wye wye],kvs=[7.97 0.12 0.12],kvas=[15 15 15],Taps=[1.0 1 1],XscArray=[2.124,2.124,1.416],%loadloss=1.766666667 ,%noloadloss=0.433333333
new transformer.144806 Phases=3,Windings=2,Buses=[BMT155937146.1.2.3 BBT815854.1.2.3.0],Conns=[delta wye],kvs=[13.80 0.220],kvas=[30 30],Taps=[1.0 1],XHL=3.56,%loadloss=1.816666666 ,%noloadloss=0.5
new transformer.1000817 Phases=1,Windings=3,Buses=[BMT133878035.1 BBT85219404.1.0 BBT85219404.0.2],Conns=[wye wye wye],kvs=[7.97 0.12 0.12],kvas=[5 5 5],Taps=[1.0 1 1],XscArray=[1.632,1.632,1.088],%loadloss=2.1 ,%noloadloss=0.7
new transformer.1089521 Phases=1,Windings=3,Buses=[BMT163298299.1 BBT138733249.1.0 BBT138733249.0.2],Conns=[wye wye wye],kvs=[7.97 0.12 0.12],kvas=[5 5 5],Taps=[1.0 1 1],XscArray=[1.632,1.632,1.088],%loadloss=2.1 ,%noloadloss=0.7
new transformer.1392025 Phases=1,Windings=3,Buses=[BMT162213201.1 BBT148527793.1.0 BBT148527793.0.2],Conns=[wye wye wye],kvs=[7.97 0.12 0.12],kvas=[5 5 5],Taps=[1.0 1 1],XscArray=[1.632,1.632,1.088],%loadloss=2.1 ,%noloadloss=0.7
new transformer.1401280 Phases=1,Windings=3,Buses=[BMT155936428.1 BBT150754378.1.0 BBT150754378.0.2],Conns=[wye wye wye],kvs=[7.97 0.12 0.12],kvas=[37,5 37,5 37,5],Taps=[1.0 1 1],XscArray=[2.472,2.472,1.648],%loadloss=1.413333333 ,%noloadloss=0.36
new transformer.1401618 Phases=1,Windings=3,Buses=[BMT155935665.1 BBT150862337.1.0 BBT150862337.0.2],Conns=[wye wye wye],kvs=[7.97 0.12 0.12],kvas=[10 10 10],Taps=[1.0 1 1],XscArray=[1.872,1.872,1.248],%loadloss=1.95 ,%noloadloss=0.5
new transformer.1401640 Phases=3,Windings=2,Buses=[BMT155935597.1.2.3 BBT150866310.1.2.3.0],Conns=[delta wye],kvs=[13.80 0.220],kvas=[45 45],Taps=[1.0 1],XHL=3.64,%loadloss=1.666666667 ,%noloadloss=0.433333333
new transformer.1401646 Phases=3,Windings=2,Buses=[BMT155935596.1.2.3 BBT150866974.1.2.3.0],Conns=[delta wye],kvs=[13.80 0.220],kvas=[45 45],Taps=[1.0 1],XHL=3.64,%loadloss=1.666666667 ,%noloadloss=0.433333333
new transformer.1401648 Phases=3,Windings=2,Buses=[BMT155935598.1.2.3 BBT150867317.1.2.3.0],Conns=[delta wye],kvs=[13.80 0.220],kvas=[45 45],Taps=[1.0 1],XHL=3.64,%loadloss=1.666666667 ,%noloadloss=0.433333333
new transformer.1401666 Phases=3,Windings=2,Buses=[BMT155935604.1.2.3 BBT150871030.1.2.3.0],Conns=[delta wye],kvs=[13.80 0.220],kvas=[45 45],Taps=[1.0 1],XHL=3.64,%loadloss=1.666666667 ,%noloadloss=0.433333333
new transformer.1414012 Phases=1,Windings=3,Buses=[BMT163043669.1 BBT153635727.1.0 BBT153635727.0.2],Conns=[wye wye wye],kvs=[7.97 0.12 0.12],kvas=[10 10 10],Taps=[1.0 1 1],XscArray=[1.872,1.872,1.248],%loadloss=1.95 ,%noloadloss=0.5
new transformer.1421558 Phases=1,Windings=3,Buses=[BMT157521428.1 BBT155392120.1.0 BBT155392120.0.2],Conns=[wye wye wye],kvs=[7.97 0.12 0.12],kvas=[10 10 10],Taps=[1.0 1 1],XscArray=[1.872,1.872,1.248],%loadloss=1.95 ,%noloadloss=0.5
new transformer.1421798 Phases=1,Windings=3,Buses=[BMT156348593.1 BBT155490256.1.0 BBT155490256.0.2],Conns=[wye wye wye],kvs=[7.97 0.12 0.12],kvas=[10 10 10],Taps=[1.0 1 1],XscArray=[1.872,1.872,1.248],%loadloss=1.95 ,%noloadloss=0.5
new transformer.1444683 Phases=3,Windings=2,Buses=[BMT160199150.1.2.3 BBT160198734.1.2.3.0],Conns=[delta wye],kvs=[13.80 0.220],kvas=[45 45],Taps=[1.0 1],XHL=3.64,%loadloss=1.666666667 ,%noloadloss=0.433333333
new transformer.144841 Phases=3,Windings=2,Buses=[BMT155937165.1.2.3 BBT816155.1.2.3.0],Conns=[delta wye],kvs=[13.80 0.220],kvas=[30 30],Taps=[1.0 1],XHL=3.56,%loadloss=1.816666666 ,%noloadloss=0.5
new transformer.144855 Phases=3,Windings=2,Buses=[BMT153334392.1.2.3 BBT816372.1.2.3.0],Conns=[delta wye],kvs=[13.80 0.220],kvas=[15 15],Taps=[1.0 1],XHL=3.36,%loadloss=2.166666667 ,%noloadloss=0.566666666
new transformer.144862 Phases=3,Windings=2,Buses=[BMT119697400.1.2.3 BBT816386.1.2.3.0],Conns=[delta wye],kvs=[13.80 0.220],kvas=[15 15],Taps=[1.0 1],XHL=3.36,%loadloss=2.166666667 ,%noloadloss=0.566666666
new transformer.1447194 Phases=1,Windings=3,Buses=[BMT163815808.1 BBT161023528.1.0 BBT161023528.0.2],Conns=[wye wye wye],kvs=[7.97 0.12 0.12],kvas=[10 10 10],Taps=[1.0 1 1],XscArray=[1.872,1.872,1.248],%loadloss=1.95 ,%noloadloss=0.5
new transformer.1447200 Phases=1,Windings=3,Buses=[BMT161026016.1 BBT161025874.1.0 BBT161025874.0.2],Conns=[wye wye wye],kvs=[7.97 0.12 0.12],kvas=[10 10 10],Taps=[1.0 1 1],XscArray=[1.872,1.872,1.248],%loadloss=1.95 ,%noloadloss=0.5
new transformer.144722 Phases=3,Windings=2,Buses=[BMT155935546.1.2.3 BBT814629.1.2.3.0],Conns=[delta wye],kvs=[13.80 0.220],kvas=[30 30],Taps=[1.0 1],XHL=3.56,%loadloss=1.816666666 ,%noloadloss=0.5
new transformer.144729 Phases=3,Windings=2,Buses=[BMT155935550.1.2.3 BBT814762.1.2.3.0],Conns=[delta wye],kvs=[13.80 0.220],kvas=[75 75],Taps=[1.0 1],XHL=3.72,%loadloss=1.466666667 ,%noloadloss=0.393333333