new line.TBT18779691 bus1=BBT150862337.1.2.0,bus2=BBT150862338.1.2.0,Phases=2,Linecode=BT518_BT518_7_2_1,Length=0.0005,Units=km
new line.TBT18779801 bus1=BBT150866310.1.2.3.0,bus2=BBT150866311.1.2.3.0,Phases=3,Linecode=BT518_BT518_7_3_1,Length=0.0005,Units=km
new line.TBT18779809 bus1=BBT150866311.1.2.3.0,bus2=BBT150866440.1.2.3.0,Phases=3,Linecode=BT803_BT803_4_3_4,Length=0.029213,Units=km
new line.TBT18779810 bus1=BBT150866311.1.2.3.0,bus2=BBT150866461.1.2.3.0,Phases=3,Linecode=BT803_BT803_4_3_4,Length=0.039473,Units=km
new line.TBT18779814 bus1=BBT150866461.1.2.3.0,bus2=BBT150866587.1.2.3.0,Phases=3,Linecode=BT803_BT803_4_3_4,Length=0.039473,Units=km
new line.TBT18779816 bus1=BBT150866440.1.2.3.0,bus2=BBT150866626.1.2.3.0,Phases=3,Linecode=BT803_BT803_4_3_4,Length=0.022893,Units=km
new line.TBT18779823 bus1=BBT150866626.1.2.3.0,bus2=BBT150866699.1.2.3.0,Phases=3,Linecode=BT803_BT803_4_3_4,Length=0.008546,Units=km
new line.TBT18779825 bus1=BBT150866699.1.2.3.0,bus2=BBT150866714.1.2.3.0,Phases=3,Linecode=BT803_BT803_4_3_4,Length=0.016124,Units=km
new line.TBT18779826 bus1=BBT150866714.1.2.3.0,bus2=BBT150866715.1.2.3.0,Phases=3,Linecode=BT803_BT803_4_3_4,Length=0.018029,Units=km
new line.TBT18779827 bus1=BBT150866715.1.2.3.0,bus2=BBT150866716.1.2.3.0,Phases=3,Linecode=BT803_BT803_4_3_4,Length=0.020041,Units=km
new line.TBT18779837 bus1=BBT150866716.1.2.3.0,bus2=BBT150866806.1.2.3.0,Phases=3,Linecode=BT803_BT803_4_3_4,Length=0.030931,Units=km
new line.TBT18779840 bus1=BBT150866699.1.2.3.0,bus2=BBT150866823.1.2.3.0,Phases=3,Linecode=BT803_BT803_4_3_4,Length=0.023764,Units=km
new line.TBT18779841 bus1=BBT150866823.1.2.3.0,bus2=BBT150866824.1.2.3.0,Phases=3,Linecode=BT803_BT803_4_3_4,Length=0.032133,Units=km
new line.TBT18779857 bus1=BBT150866974.1.2.3.0,bus2=BBT150866975.1.2.3.0,Phases=3,Linecode=BT518_BT518_7_3_1,Length=0.0005,Units=km
new line.TBT18779858 bus1=BBT150866587.1.2.3.0,bus2=BBT150867034.1.2.3.0,Phases=3,Linecode=BT803_BT803_4_3_4,Length=0.040798,Units=km
new line.TBT18779861 bus1=BBT150866975.1.2.3.0,bus2=BBT150867084.1.2.3.0,Phases=3,Linecode=BT803_BT803_4_3_4,Length=0.037611,Units=km
new line.TBT18779862 bus1=BBT150867084.1.2.3.0,bus2=BBT150867096.1.2.3.0,Phases=3,Linecode=BT803_BT803_4_3_4,Length=0.046187,Units=km
new line.TBT18779863 bus1=BBT150867096.1.2.3.0,bus2=BBT150867100.1.2.3.0,Phases=3,Linecode=BT803_BT803_4_3_4,Length=0.039473,Units=km
new line.TBT18779864 bus1=BBT150867100.1.2.3.0,bus2=BBT150867101.1.2.3.0,Phases=3,Linecode=BT803_BT803_4_3_4,Length=0.040391,Units=km
new line.TBT18779875 bus1=BBT150867317.1.2.3.0,bus2=BBT150867318.1.2.3.0,Phases=3,Linecode=BT518_BT518_7_3_1,Length=0.0005,Units=km
new line.TBT18779880 bus1=BBT150866975.1.2.3.0,bus2=BBT150867570.1.2.3.0,Phases=3,Linecode=BT803_BT803_4_3_4,Length=0.045677,Units=km
new line.TBT18779881 bus1=BBT150867570.1.2.3.0,bus2=BBT150867571.1.2.3.0,Phases=3,Linecode=BT803_BT803_4_3_4,Length=0.02507,Units=km
new line.TBT18779882 bus1=BBT150867571.1.2.3.0,bus2=BBT150867572.1.2.3.0,Phases=3,Linecode=BT803_BT803_4_3_4,Length=0.038469,Units=km
new line.TBT18779883 bus1=BBT150867572.1.2.3.0,bus2=BBT150867583.1.2.3.0,Phases=3,Linecode=BT803_BT803_4_3_4,Length=0.042937,Units=km
new line.TBT18779890 bus1=BBT150867318.1.2.3.0,bus2=BBT150867722.1.2.3.0,Phases=3,Linecode=BT803_BT803_4_3_4,Length=0.02599,Units=km
new line.TBT18779891 bus1=BBT150867722.1.2.3.0,bus2=BBT150867723.1.2.3.0,Phases=3,Linecode=BT803_BT803_4_3_4,Length=0.005384,Units=km
new line.TBT18779892 bus1=BBT150867723.1.2.3.0,bus2=BBT150867724.1.2.3.0,Phases=3,Linecode=BT803_BT803_4_3_4,Length=0.038895,Units=km
new line.TBT18779893 bus1=BBT150867724.1.2.3.0,bus2=BBT150867739.1.2.3.0,Phases=3,Linecode=BT803_BT803_4_3_4,Length=0.041869,Units=km
new line.TBT18779895 bus1=BBT150867723.1.2.3.0,bus2=BBT150867765.1.2.3.0,Phases=3,Linecode=BT803_BT803_4_3_4,Length=0.005384,Units=km
new line.TBT18779896 bus1=BBT150867723.1.2.3.0,bus2=BBT150867766.1.2.3.0,Phases=3,Linecode=BT803_BT803_4_3_4,Length=0.019228,Units=km
new line.TBT18779897 bus1=BBT150867570.1.2.3.0,bus2=BBT150867767.1.2.3.0,Phases=3,Linecode=BT803_BT803_4_3_4,Length=0.007613,Units=km
new line.TBT18779898 bus1=BBT150867767.1.2.3.0,bus2=BBT150867768.1.2.3.0,Phases=3,Linecode=BT803_BT803_4_3_4,Length=0.034915,Units=km
new line.TBT18779905 bus1=BBT150867318.1.2.3.0,bus2=BBT150867822.1.2.3.0,Phases=3,Linecode=BT803_BT803_4_3_4,Length=0.036235,Units=km
new line.TBT18779906 bus1=BBT150867822.1.2.3.0,bus2=BBT150867823.1.2.3.0,Phases=3,Linecode=BT803_BT803_4_3_4,Length=0.041613,Units=km
new line.TBT18779907 bus1=BBT150867766.1.2.3.0,bus2=BBT150867825.1.2.3.0,Phases=3,Linecode=BT803_BT803_4_3_4,Length=0.028625,Units=km
new line.TBT18780097 bus1=BBT150871030.1.2.3.0,bus2=BBT150871031.1.2.3.0,Phases=3,Linecode=BT518_BT518_7_3_1,Length=0.0005,Units=km
new line.TBT18780103 bus1=BBT150871031.1.2.3.0,bus2=BBT150871163.1.2.3.0,Phases=3,Linecode=BT803_BT803_4_3_4,Length=0.028781,Units=km
new line.TBT18780104 bus1=BBT150871163.1.2.3.0,bus2=BBT150871164.1.2.3.0,Phases=3,Linecode=BT803_BT803_4_3_4,Length=0.005829,Units=km
new line.TBT18780105 bus1=BBT150871164.1.2.3.0,bus2=BBT150871184.1.2.3.0,Phases=3,Linecode=BT803_BT803_4_3_4,Length=0.040296,Units=km
new line.TBT18780106 bus1=BBT150871184.1.2.3.0,bus2=BBT150871197.1.2.3.0,Phases=3,Linecode=BT803_BT803_4_3_4,Length=0.039834,Units=km
new line.TBT18780107 bus1=BBT150871197.1.2.3.0,bus2=BBT150871200.1.2.3.0,Phases=3,Linecode=BT803_BT803_4_3_4,Length=0.034002,Units=km
new line.TBT18780108 bus1=BBT150871031.1.2.3.0,bus2=BBT150871224.1.2.3.0,Phases=3,Linecode=BT803_BT803_4_3_4,Length=0.022464,Units=km
new line.TBT18780112 bus1=BBT150871224.1.2.3.0,bus2=BBT150871236.1.2.3.0,Phases=3,Linecode=BT803_BT803_4_3_4,Length=0.005384,Units=km
new line.TBT18780114 bus1=BBT150871236.1.2.3.0,bus2=BBT150871238.1.2.3.0,Phases=3,Linecode=BT803_BT803_4_3_4,Length=0.028781,Units=km
new line.TBT18780115 bus1=BBT150871238.1.2.3.0,bus2=BBT150871251.1.2.3.0,Phases=3,Linecode=BT803_BT803_4_3_4,Length=0.031004,Units=km
new line.TBT18780116 bus1=BBT150871251.1.2.3.0,bus2=BBT150871265.1.2.3.0,Phases=3,Linecode=BT803_BT803_4_3_4,Length=0.022464,Units=km
new line.TBT18780117 bus1=BBT150871265.1.2.3.0,bus2=BBT150871266.1.2.3.0,Phases=3,Linecode=BT803_BT803_4_3_4,Length=0.006401,Units=km
new line.TBT18780118 bus1=BBT150871266.1.2.3.0,bus2=BBT150871275.1.2.3.0,Phases=3,Linecode=BT803_BT803_4_3_4,Length=0.043915,Units=km
new line.TBT10097093 bus1=BBT147796779.1.2.0,bus2=BBT147796786.1.2.0,Phases=2,Linecode=BT521_BT521_7_2_1,Length=0.0005,Units=km
new line.TBT10100740 bus1=BBT147908324.1.2.0,bus2=BBT147908331.1.2.0,Phases=2,Linecode=BT518_BT518_7_2_1,Length=0.0005,Units=km
new line.TBT18695711 bus1=BBT148441677.1.2.0,bus2=BBT148441678.1.2.0,Phases=2,Linecode=BT521_BT521_7_2_1,Length=0.0005,Units=km
new line.TBT18697269 bus1=BBT3624233.1.2.3.0,bus2=BBT148498594.1.2.3.0,Phases=3,Linecode=BT810_BT810_4_3_4,Length=0.040697,Units=km
new line.TBT18697270 bus1=BBT148498594.1.2.3.0,bus2=BBT148498605.1.2.3.0,Phases=3,Linecode=BT810_BT810_4_3_4,Length=0.004121,Units=km
new line.TBT18697274 bus1=BBT148498594.1.2.3.0,bus2=BBT148498634.1.2.3.0,Phases=3,Linecode=BT810_BT810_4_3_4,Length=0.003604,Units=km
new line.TBT18697277 bus1=BBT148498594.1.2.3.0,bus2=BBT148498643.1.2.3.0,Phases=3,Linecode=BT810_BT810_4_3_4,Length=0.03545,Units=km
new line.TBT18697813 bus1=BBT3892312.1.2.0,bus2=BBT148510619.1.2.0,Phases=2,Linecode=BT810_BT810_4_2_4,Length=0.036978,Units=km
new line.TBT18697814 bus1=BBT148510619.1.2.0,bus2=BBT148510639.1.2.0,Phases=2,Linecode=BT810_BT810_4_2_4,Length=0.032783,Units=km
new line.TBT18697815 bus1=BBT148510639.1.2.0,bus2=BBT148510643.1.2.0,Phases=2,Linecode=BT810_BT810_4_2_4,Length=0.033817,Units=km
new line.TBT18697816 bus1=BBT148510643.1.2.0,bus2=BBT148510644.1.2.0,Phases=2,Linecode=BT810_BT810_4_2_4,Length=0.034649,Units=km
new line.TBT18698493 bus1=BBT148527793.1.2.0,bus2=BBT148527794.1.2.0,Phases=2,Linecode=BT518_BT518_7_2_1,Length=0.0005,Units=km
new line.TBT18740172 bus1=BBT149690830.1.2.0,bus2=BBT149690831.1.2.0,Phases=2,Linecode=BT518_BT518_7_2_1,Length=0.0005,Units=km
new line.TBT18741963 bus1=BBT149745862.1.2.0,bus2=BBT149745863.1.2.0,Phases=2,Linecode=BT508_BT508_7_2_1,Length=0.0005,Units=km
new line.TBT18741964 bus1=BBT149746021.1.2.0,bus2=BBT149746022.1.2.0,Phases=2,Linecode=BT508_BT508_7_2_1,Length=0.0005,Units=km
new line.TBT18844195 bus1=BBT152799235.1.2.0,bus2=BBT152799236.1.2.0,Phases=2,Linecode=BT518_BT518_7_2_1,Length=0.0005,Units=km
new line.TBT18844226 bus1=BBT152801047.1.2.0,bus2=BBT152801048.1.2.0,Phases=2,Linecode=BT513_BT513_7_2_1,Length=0.0005,Units=km
new line.TBT18844233 bus1=BBT152801048.1.2.0,bus2=BBT152801341.1.2.0,Phases=2,Linecode=BT803_BT803_4_2_4,Length=0.023184,Units=km
new line.TBT18844234 bus1=BBT152801341.1.2.0,bus2=BBT152801342.1.2.0,Phases=2,Linecode=BT807_BT807_4_2_3,Length=0.006997,Units=km
new line.TBT18844235 bus1=BBT152801342.1.2.0,bus2=BBT152801343.1.2.0,Phases=2,Linecode=BT803_BT803_4_2_4,Length=0.007068,Units=km
new line.TBT18844236 bus1=BBT152801343.1.2.0,bus2=BBT152801344.1.2.0,Phases=2,Linecode=BT803_BT803_4_2_4,Length=0.037198,Units=km
new line.TBT18844237 bus1=BBT152801344.1.2.0,bus2=BBT152801345.1.2.0,Phases=2,Linecode=BT803_BT803_4_2_4,Length=0.036108,Units=km
new line.TBT18844239 bus1=BBT152801345.1.2.0,bus2=BBT152801347.1.2.0,Phases=2,Linecode=BT803_BT803_4_2_4,Length=0.020091,Units=km
new line.TBT18844240 bus1=BBT152801405.1.2.0,bus2=BBT152801348.1.2.0,Phases=2,Linecode=BT803_BT803_4_2_4,Length=0.034697,Units=km
new line.TBT18844241 bus1=BBT152801342.1.2.0,bus2=BBT152801349.1.2.0,Phases=2,Linecode=BT803_BT803_4_2_4,Length=0.019991,Units=km
new line.TBT18844242 bus1=BBT152801048.1.2.0,bus2=BBT152801399.1.2.0,Phases=2,Linecode=BT803_BT803_4_2_4,Length=0.025698,Units=km
new line.TBT18844243 bus1=BBT152801342.1.2.0,bus2=BBT152801400.1.2.0,Phases=2,Linecode=BT803_BT803_4_2_4,Length=0.01403,Units=km
new line.TBT18844244 bus1=BBT152801349.1.2.0,bus2=BBT152801401.1.2.0,Phases=2,Linecode=BT803_BT803_4_2_4,Length=0.02359,Units=km
new line.TBT18844245 bus1=BBT152801349.1.2.0,bus2=BBT152801405.1.2.0,Phases=2,Linecode=BT803_BT803_4_2_4,Length=0.040773,Units=km
new line.TBT18844246 bus1=BBT152801348.1.2.0,bus2=BBT152801410.1.2.0,Phases=2,Linecode=BT803_BT803_4_2_4,Length=0.023335,Units=km
new line.TBT18844249 bus1=BBT152801400.1.2.0,bus2=BBT152801412.1.2.0,Phases=2,Linecode=BT803_BT803_4_2_4,Length=0.025795,Units=km
new line.TBT18844250 bus1=BBT152801412.1.2.0,bus2=BBT152801413.1.2.0,Phases=2,Linecode=BT803_BT803_4_2_4,Length=0.010995,Units=km
new line.TBT18844251 bus1=BBT152801413.1.2.0,bus2=BBT152801414.1.2.0,Phases=2,Linecode=BT803_BT803_4_2_4,Length=0.022462,Units=km
new line.TBT18844252 bus1=BBT152801399.1.2.0,bus2=BBT152801419.1.2.0,Phases=2,Linecode=BT803_BT803_4_2_4,Length=0.022462,Units=km
new line.TBT18844253 bus1=BBT152801399.1.2.0,bus2=BBT152801424.1.2.0,Phases=2,Linecode=BT803_BT803_4_2_4,Length=0.028271,Units=km
new line.TBT18844254 bus1=BBT152801424.1.2.0,bus2=BBT152801425.1.2.0,Phases=2,Linecode=BT803_BT803_4_2_4,Length=0.005655,Units=km
new line.TBT18844255 bus1=BBT152801425.1.2.0,bus2=BBT152801426.1.2.0,Phases=2,Linecode=BT803_BT803_4_2_4,Length=0.020991,Units=km
new line.TBT18844256 bus1=BBT152801424.1.2.0,bus2=BBT152801427.1.2.0,Phases=2,Linecode=BT803_BT803_4_2_4,Length=0.029261,Units=km
new line.TBT18844257 bus1=BBT152801427.1.2.0,bus2=BBT152801431.1.2.0,Phases=2,Linecode=BT803_BT803_4_2_4,Length=0.02432,Units=km
new line.TBT18844258 bus1=BBT152801345.1.2.0,bus2=BBT152801432.1.2.0,Phases=2,Linecode=BT803_BT803_4_2_4,Length=0.03058,Units=km
new line.TBT18844259 bus1=BBT152801431.1.2.0,bus2=BBT152801433.1.2.0,Phases=2,Linecode=BT803_BT803_4_2_4,Length=0.029261,Units=km
new line.TBT18844263 bus1=BBT152801412.1.2.0,bus2=BBT152801440.1.2.0,Phases=2,Linecode=BT803_BT803_4_2_4,Length=0.03416,Units=km
new line.TBT18844264 bus1=BBT152801440.1.2.0,bus2=BBT152801456.1.2.0,Phases=2,Linecode=BT803_BT803_4_2_4,Length=0.021204,Units=km
new line.TBT18844266 bus1=BBT152801349.1.2.0,bus2=BBT152801532.1.2.0,Phases=2,Linecode=BT803_BT803_4_2_4,Length=0.023989,Units=km
new line.TBT18907634 bus1=BBT10639682.1.2.3.0,bus2=BBT154751122.1.2.3.0,Phases=3,Linecode=BT803_BT803_4_3_4,Length=0.036989,Units=km
new line.TBT18907635 bus1=BBT154751122.1.2.3.0,bus2=BBT157666876.1.2.3.0,Phases=3,Linecode=BT803_BT803_4_3_4,Length=0.004122,Units=km
new line.TBT18908429 bus1=BBT154773484.1.2.0,bus2=BBT154773485.1.2.0,Phases=2,Linecode=BT521_BT521_7_2_1,Length=0.0005,Units=km
new line.TBT18971483 bus1=BBT156664642.1.2.0,bus2=BBT156664643.1.2.0,Phases=2,Linecode=BT510_BT510_7_2_1,Length=0.0005,Units=km
new line.TBT18686440 bus1=BBT148129912.1.2.0,bus2=BBT148129913.1.2.0,Phases=2,Linecode=BT518_BT518_7_2_1,Length=0.0005,Units=km
new line.TBT18726089 bus1=BBT149278808.1.2.0,bus2=BBT149278809.1.2.0,Phases=2,Linecode=BT518_BT518_7_2_1,Length=0.0005,Units=km
new line.TBT18726917 bus1=BBT149304026.1.2.0,bus2=BBT149304027.1.2.0,Phases=2,Linecode=BT518_BT518_7_2_1,Length=0.0005,Units=km
new line.TBT18857687 bus1=BBT153190367.1.2.0,bus2=BBT153190368.1.2.0,Phases=2,Linecode=BT521_BT521_7_2_1,Length=0.0005,Units=km
new line.TBT18860490 bus1=BBT153268182.1.2.0,bus2=BBT153268183.1.2.0,Phases=2,Linecode=BT521_BT521_7_2_1,Length=0.0005,Units=km
new line.TBT18860491 bus1=BBT153268183.1.2.0,bus2=BBT153268189.1.2.0,Phases=2,Linecode=BT808_BT808_4_2_3,Length=0.034112,Units=km
new line.TBT18860812 bus1=BBT153276068.1.2.0,bus2=BBT153276069.1.2.0,Phases=2,Linecode=BT521_BT521_7_2_1,Length=0.0005,Units=km
new line.TBT18861919 bus1=BBT153303588.1.2.0,bus2=BBT153303589.1.2.0,Phases=2,Linecode=BT513_BT513_7_2_1,Length=0.0005,Units=km
new line.TBT18862010 bus1=BBT153304808.1.2.0,bus2=BBT153304809.1.2.0,Phases=2,Linecode=BT513_BT513_7_2_1,Length=0.0005,Units=km
new line.TBT18893062 bus1=BBT154256279.1.2.0,bus2=BBT154256280.1.2.0,Phases=2,Linecode=BT518_BT518_7_2_1,Length=0.0005,Units=km
new line.TBT18933980 bus1=BBT155634648.1.2.0,bus2=BBT155634649.1.2.0,Phases=2,Linecode=BT521_BT521_7_2_1,Length=0.0005,Units=km
new line.TBT18934510 bus1=BBT155648583.1.2.0,bus2=BBT155648584.1.2.0,Phases=2,Linecode=BT518_BT518_7_2_1,Length=0.0005,Units=km
new line.TBT18962672 bus1=BBT3661578.1.2.3.0,bus2=BBT156423454.1.2.3.0,Phases=3,Linecode=BT810_BT810_4_3_4,Length=0.044361,Units=km
new line.TBT18962676 bus1=BBT156423454.1.2.3.0,bus2=BBT156423458.1.2.3.0,Phases=3,Linecode=BT810_BT810_4_3_4,Length=0.025482,Units=km
new line.TBT18998440 bus1=BBT157397053.1.2.0,bus2=BBT157397054.1.2.0,Phases=2,Linecode=BT518_BT518_7_2_1,Length=0.0005,Units=km
new line.TBT19039008 bus1=BBT158548584.1.2.0,bus2=BBT158548617.1.2.0,Phases=2,Linecode=BT518_BT518_7_2_1,Length=0.0005,Units=km
new line.TBT18780122 bus1=BBT150871236.1.2.3.0,bus2=BBT150871290.1.2.3.0,Phases=3,Linecode=BT803_BT803_4_3_4,Length=0.006081,Units=km
new line.TBT18780123 bus1=BBT150871290.1.2.3.0,bus2=BBT150871291.1.2.3.0,Phases=3,Linecode=BT803_BT803_4_3_4,Length=0.016486,Units=km
new line.TBT18780126 bus1=BBT150871236.1.2.3.0,bus2=BBT150871374.1.2.3.0,Phases=3,Linecode=BT803_BT803_4_3_4,Length=0.032637,Units=km
new line.TBT18780127 bus1=BBT150871374.1.2.3.0,bus2=BBT150871383.1.2.3.0,Phases=3,Linecode=BT803_BT803_4_3_4,Length=0.041215,Units=km
new line.TBT18780128 bus1=BBT150867823.1.2.3.0,bus2=BBT150871386.1.2.3.0,Phases=3,Linecode=BT803_BT803_4_3_4,Length=0.040296,Units=km
new line.TBT18853152 bus1=BBT153069286.1.2.0,bus2=BBT153069287.1.2.0,Phases=2,Linecode=BT521_BT521_7_2_1,Length=0.0005,Units=km
new line.TBT18928614 bus1=BBT155392120.1.2.0,bus2=BBT155392121.1.2.0,Phases=2,Linecode=BT521_BT521_7_2_1,Length=0.0005,Units=km
new line.TBT18930004 bus1=BBT155490256.1.2.0,bus2=BBT155490257.1.2.0,Phases=2,Linecode=BT518_BT518_7_2_1,Length=0.0005,Units=km
new line.TBT18958795 bus1=BBT156325184.1.2.0,bus2=BBT156325185.1.2.0,Phases=2,Linecode=BT511_BT511_7_2_1,Length=0.0005,Units=km
new line.TBT18958849 bus1=BBT156326567.1.2.0,bus2=BBT156326568.1.2.0,Phases=2,Linecode=BT511_BT511_7_2_1,Length=0.0005,Units=km
new line.TBT18958916 bus1=BBT156328226.1.2.0,bus2=BBT156328227.1.2.0,Phases=2,Linecode=BT505_BT505_7_2_1,Length=0.0005,Units=km
new line.TBT19035461 bus1=BBT158428746.1.2.0,bus2=BBT158428747.1.2.0,Phases=2,Linecode=BT521_BT521_7_2_1,Length=0.0005,Units=km
new line.TBT19035489 bus1=BBT158429759.1.2.0,bus2=BBT158429760.1.2.0,Phases=2,Linecode=BT521_BT521_7_2_1,Length=0.0005,Units=km
new line.TBT19035537 bus1=BBT158430632.1.2.0,bus2=BBT158430633.1.2.0,Phases=2,Linecode=BT521_BT521_7_2_1,Length=0.0005,Units=km
new line.TBT19037087 bus1=BBT158476959.1.2.0,bus2=BBT158476960.1.2.0,Phases=2,Linecode=BT518_BT518_7_2_1,Length=0.0005,Units=km
new line.TBT19065429 bus1=BBT159412108.1.2.0,bus2=BBT159412109.1.2.0,Phases=2,Linecode=BT505_BT505_7_2_1,Length=0.0005,Units=km
new line.TBT18693365 bus1=BBT148362674.1.2.3.0,bus2=BBT824051.1.2.3.0,Phases=3,Linecode=BT518_BT518_7_3_1,Length=0.0005,Units=km
new line.TBT18791868 bus1=BBT151210900.1.2.0,bus2=BBT151210901.1.2.0,Phases=2,Linecode=BT518_BT518_7_2_1,Length=0.0005,Units=km
new line.TBT18793517 bus1=BBT151265135.1.2.0,bus2=BBT151265136.1.2.0,Phases=2,Linecode=BT518_BT518_7_2_1,Length=0.0005,Units=km
new line.TBT18863390 bus1=BBT153334257.1.2.0,bus2=BBT153334258.1.2.0,Phases=2,Linecode=BT521_BT521_7_2_1,Length=0.0005,Units=km
new line.TBT18898142 bus1=BBT154428706.1.2.0,bus2=BBT154428707.1.2.0,Phases=2,Linecode=BT521_BT521_7_2_1,Length=0.0005,Units=km
new line.TBT18942113 bus1=BBT155829767.1.2.3.0,bus2=BBT155829768.1.2.3.0,Phases=3,Linecode=BT518_BT518_7_3_1,Length=0.0005,Units=km
new line.TBT18942116 bus1=BBT155829858.1.2.3.0,bus2=BBT155829859.1.2.3.0,Phases=3,Linecode=BT518_BT518_7_3_1,Length=0.0005,Units=km
new line.TBT18942328 bus1=BBT155833254.1.2.3.0,bus2=BBT155833255.1.2.3.0,Phases=3,Linecode=BT518_BT518_7_3_1,Length=0.0005,Units=km
new line.TBT19046963 bus1=BBT158785058.1.2.0,bus2=BBT158785059.1.2.0,Phases=2,Linecode=BT513_BT513_7_2_1,Length=0.0005,Units=km
new line.TBT19076498 bus1=BBT159720713.1.2.0,bus2=BBT159720714.1.2.0,Phases=2,Linecode=BT505_BT505_7_2_1,Length=0.0005,Units=km
new line.TBT19076529 bus1=BBT159721572.1.2.0,bus2=BBT159721573.1.2.0,Phases=2,Linecode=BT505_BT505_7_2_1,Length=0.0005,Units=km
new line.TBT19117042 bus1=BBT161260458.1.2.0,bus2=BBT161260459.1.2.0,Phases=2,Linecode=BT518_BT518_7_2_1,Length=0.0005,Units=km
new line.TBT19119353 bus1=BBT18893270.1.2.3.0,bus2=BBT161348571.1.2.3.0,Phases=3,Linecode=BT808_BT808_4_3_3,Length=0.015647,Units=km
new line.TBT19119895 bus1=BBT161368642.1.2.0,bus2=BBT161368643.1.2.0,Phases=2,Linecode=BT514_BT509_7_2_1,Length=0.0005,Units=km
new line.TBT19121675 bus1=BBT161419108.1.2.0,bus2=BBT161419109.1.2.0,Phases=2,Linecode=BT518_BT518_7_2_1,Length=0.0005,Units=km
new line.TBT19155440 bus1=BBT162836393.1.2.0,bus2=BBT162836394.1.2.0,Phases=2,Linecode=BT518_BT518_7_2_1,Length=0.0005,Units=km
new line.TBT18776734 bus1=BBT150754378.1.2.0,bus2=BBT150754379.1.2.0,Phases=2,Linecode=BT513_BT513_7_2_1,Length=0.0005,Units=km
new line.TBT18839896 bus1=BBT152682236.1.2.0,bus2=BBT152682237.1.2.0,Phases=2,Linecode=BT518_BT518_7_2_1,Length=0.0005,Units=km
new line.TBT18842770 bus1=BBT152765901.1.2.0,bus2=BBT152765902.1.2.0,Phases=2,Linecode=BT518_BT518_7_2_1,Length=0.0005,Units=km
new line.TBT18912903 bus1=BBT154913841.1.2.0,bus2=BBT154913842.1.2.0,Phases=2,Linecode=BT521_BT521_7_2_1,Length=0.0005,Units=km
new line.TBT18949533 bus1=BBT156052834.1.2.0,bus2=BBT156052835.1.2.0,Phases=2,Linecode=BT519_BT519_7_2_1,Length=0.0005,Units=km
new line.TBT19053944 bus1=BBT158996709.1.2.0,bus2=BBT158996710.1.2.0,Phases=2,Linecode=BT518_BT518_7_2_1,Length=0.0005,Units=km
new line.TBT19054188 bus1=BBT159002167.1.2.0,bus2=BBT159002168.1.2.0,Phases=2,Linecode=BT518_BT518_7_2_1,Length=0.0005,Units=km
new line.TBT19098678 bus1=BBT160577325.1.2.0,bus2=BBT160577326.1.2.0,Phases=2,Linecode=BT518_BT518_7_2_1,Length=0.0005,Units=km
new line.TBT19098771 bus1=BBT160581407.1.2.0,bus2=BBT160581408.1.2.0,Phases=2,Linecode=BT518_BT518_7_2_1,Length=0.0005,Units=km
new line.TBT19123230 bus1=BBT161460587.1.2.0,bus2=BBT161460588.1.2.0,Phases=2,Linecode=BT518_BT518_7_2_1,Length=0.0005,Units=km
new line.TBT19123948 bus1=BBT161478273.1.2.0,bus2=BBT161478274.1.2.0,Phases=2,Linecode=BT518_BT518_7_2_1,Length=0.0005,Units=km
new line.TBT19124353 bus1=BBT161494448.1.2.0,bus2=BBT161494449.1.2.0,Phases=2,Linecode=BT518_BT518_7_2_1,Length=0.0005,Units=km
new line.TBT19124480 bus1=BBT87786815.1.2.0,bus2=BBT161498027.1.2.0,Phases=2,Linecode=BT808_BT808_4_2_3,Length=0.044128,Units=km
new line.TBT19124481 bus1=BBT161498027.1.2.0,bus2=BBT161498053.1.2.0,Phases=2,Linecode=BT808_BT808_4_2_3,Length=0.041177,Units=km
new line.TBT19127547 bus1=BBT161616931.1.2.0,bus2=BBT161616932.1.2.0,Phases=2,Linecode=BT518_BT518_7_2_1,Length=0.0005,Units=km
new line.TBT19159531 bus1=BBT163041336.1.2.0,bus2=BBT163041337.1.2.0,Phases=2,Linecode=BT518_BT518_7_2_1,Length=0.0005,Units=km
new line.TBT10092158 bus1=BBT147688468.1.2.0,bus2=BBT147688475.1.2.0,Phases=2,Linecode=BT521_BT521_7_2_1,Length=0.0005,Units=km
new line.TBT18754421 bus1=BBT150043962.1.2.0,bus2=BBT150043963.1.2.0,Phases=2,Linecode=BT518_BT518_7_2_1,Length=0.0005,Units=km
new line.TBT18754443 bus1=BBT150044887.1.2.0,bus2=BBT150044888.1.2.0,Phases=2,Linecode=BT518_BT518_7_2_1,Length=0.0005,Units=km
new line.TBT18783851 bus1=BBT150988712.1.2.3.0,bus2=BBT150988713.1.2.3.0,Phases=3,Linecode=BT513_BT513_7_3_1,Length=0.0005,Units=km
new line.TBT18922310 bus1=BBT155182414.1.2.0,bus2=BBT155182415.1.2.0,Phases=2,Linecode=BT521_BT521_7_2_1,Length=0.0005,Units=km
new line.TBT18922345 bus1=BBT155183208.1.2.0,bus2=BBT155183209.1.2.0,Phases=2,Linecode=BT521_BT521_7_2_1,Length=0.0005,Units=km
new line.TBT18922453 bus1=BBT155186950.1.2.0,bus2=BBT155186951.1.2.0,Phases=2,Linecode=BT521_BT521_7_2_1,Length=0.0005,Units=km
new line.TBT18954491 bus1=BBT81823326.1.2.3.0,bus2=BBT156206469.1.2.3.0,Phases=3,Linecode=BT803_BT803_4_3_4,Length=0.023552,Units=km
new line.TBT18956153 bus1=BBT156252099.1.2.0,bus2=BBT156252100.1.2.0,Phases=2,Linecode=BT517_BT517_7_2_1,Length=0.0005,Units=km
new line.TBT18957125 bus1=BBT156274459.1.2.0,bus2=BBT156274460.1.2.0,Phases=2,Linecode=BT517_BT517_7_2_1,Length=0.0005,Units=km
new line.TBT19059787 bus1=BBT159219756.1.2.0,bus2=BBT159219757.1.2.0,Phases=2,Linecode=BT518_BT518_7_2_1,Length=0.0005,Units=km
new line.TBT19131734 bus1=BBT161755336.1.2.0,bus2=BBT161755337.1.2.0,Phases=2,Linecode=BT518_BT518_7_2_1,Length=0.0005,Units=km
new line.TBT19132796 bus1=BBT161799095.1.2.0,bus2=BBT161799096.1.2.0,Phases=2,Linecode=BT518_BT518_7_2_1,Length=0.0005,Units=km
new line.TBT19133576 bus1=BBT161826816.1.2.0,bus2=BBT161826817.1.2.0,Phases=2,Linecode=BT518_BT518_7_2_1,Length=0.0005,Units=km
new line.TBT19165722 bus1=BBT163320762.1.2.0,bus2=BBT163320763.1.2.0,Phases=2,Linecode=BT518_BT518_7_2_1,Length=0.0005,Units=km
new line.TBT19165855 bus1=BBT163329139.1.2.0,bus2=BBT163329140.1.2.0,Phases=2,Linecode=BT518_BT518_7_2_1,Length=0.0005,Units=km
new line.TBT10021059 bus1=BBT145710821.1.2.0,bus2=BBT145710828.1.2.0,Phases=2,Linecode=BT518_BT518_7_2_1,Length=0.0005,Units=km
new line.TBT18868279 bus1=BBT153484520.1.2.0,bus2=BBT153484521.1.2.0,Phases=2,Linecode=BT521_BT521_7_2_1,Length=0.0005,Units=km
new line.TBT18917980 bus1=BBT155065740.1.2.0,bus2=BBT155065741.1.2.0,Phases=2,Linecode=BT518_BT518_7_2_1,Length=0.0005,Units=km
new line.TBT18920649 bus1=BBT155137116.1.2.0,bus2=BBT155137117.1.2.0,Phases=2,Linecode=BT521_BT521_7_2_1,Length=0.0005,Units=km
new line.TBT19031347 bus1=BBT158321670.1.2.0,bus2=BBT158321671.1.2.0,Phases=2,Linecode=BT518_BT518_7_2_1,Length=0.0005,Units=km
new line.TBT19091390 bus1=BBT160198734.1.2.3.0,bus2=BBT814048.1.2.3.0,Phases=3,Linecode=BT518_BT518_7_3_1,Length=0.0005,Units=km
new line.TBT19091416 bus1=BBT814069.1.2.3.0,bus2=BBT160199280.1.2.3.0,Phases=3,Linecode=BT803_BT803_4_3_4,Length=0.040481,Units=km
new line.TBT19146655 bus1=BBT162410109.1.2.0,bus2=BBT162410110.1.2.0,Phases=2,Linecode=BT518_BT518_7_2_1,Length=0.0005,Units=km
new line.TBT19147317 bus1=BBT162444978.1.2.0,bus2=BBT162444979.1.2.0,Phases=2,Linecode=BT518_BT518_7_2_1,Length=0.0005,Units=km
new line.TBT19148982 bus1=BBT162527835.1.2.0,bus2=BBT162527836.1.2.0,Phases=2,Linecode=BT521_BT521_7_2_1,Length=0.0005,Units=km
new line.TBT19150360 bus1=BBT162606485.1.2.0,bus2=BBT162606486.1.2.0,Phases=2,Linecode=BT518_BT518_7_2_1,Length=0.0005,Units=km
new line.TBT19188787 bus1=BBT164170177.1.2.0,bus2=BBT164170178.1.2.0,Phases=2,Linecode=BT518_BT518_7_2_1,Length=0.0005,Units=km
new line.TBT19189529 bus1=BBT164191572.1.2.0,bus2=BBT164191573.1.2.0,Phases=2,Linecode=BT518_BT518_7_2_1,Length=0.0005,Units=km
new line.TBT19206389 bus1=BBT164699634.1.2.0,bus2=BBT164699635.1.2.0,Phases=2,Linecode=BT521_BT521_7_2_1,Length=0.0005,Units=km
new line.TBT19209432 bus1=BBT164807072.1.2.3.0,bus2=BBT164807073.1.2.3.0,Phases=3,Linecode=BT513_BT513_7_3_1,Length=0.0005,Units=km
new line.TBT19209445 bus1=BBT164807073.1.2.3.0,bus2=BBT164807146.1.2.3.0,Phases=3,Linecode=BT803_BT803_4_3_4,Length=0.032688,Units=km
new line.TBT19209446 bus1=BBT164807146.1.2.3.0,bus2=BBT164807173.1.2.3.0,Phases=3,Linecode=BT803_BT803_4_3_4,Length=0.035918,Units=km
new line.TBT19209447 bus1=BBT164807173.1.2.3.0,bus2=BBT164807174.1.2.3.0,Phases=3,Linecode=BT803_BT803_4_3_4,Length=0.035918,Units=km
new line.TBT19209448 bus1=BBT164807174.1.2.3.0,bus2=BBT164807190.1.2.3.0,Phases=3,Linecode=BT803_BT803_4_3_4,Length=0.037235,Units=km
new line.TBT19209450 bus1=BBT164807190.1.2.3.0,bus2=BBT164807207.1.2.3.0,Phases=3,Linecode=BT803_BT803_4_3_4,Length=0.038154,Units=km
new line.TBT19209477 bus1=BBT164807073.1.2.3.0,bus2=BBT164807830.1.2.3.0,Phases=3,Linecode=BT803_BT803_4_3_4,Length=0.016152,Units=km
new line.TBT19209478 bus1=BBT164807830.1.2.3.0,bus2=BBT164807831.1.2.3.0,Phases=3,Linecode=BT803_BT803_4_3_4,Length=0.016152,Units=km
new line.TBT19209479 bus1=BBT164807831.1.2.3.0,bus2=BBT164807834.1.2.3.0,Phases=3,Linecode=BT803_BT803_4_3_4,Length=0.036241,Units=km
new line.TBT19209481 bus1=BBT164807830.1.2.3.0,bus2=BBT164807836.1.2.3.0,Phases=3,Linecode=BT803_BT803_4_3_4,Length=0.027784,Units=km
new line.TBT19209482 bus1=BBT164807830.1.2.3.0,bus2=BBT164807837.1.2.3.0,Phases=3,Linecode=BT803_BT803_4_3_4,Length=0.006338,Units=km
new line.TBT19209483 bus1=BBT164807837.1.2.3.0,bus2=BBT164807842.1.2.3.0,Phases=3,Linecode=BT803_BT803_4_3_4,Length=0.030523,Units=km
new line.TBT19209485 bus1=BBT164807836.1.2.3.0,bus2=BBT164807851.1.2.3.0,Phases=3,Linecode=BT803_BT803_4_3_4,Length=0.039473,Units=km
new line.TBT19209487 bus1=BBT164807851.1.2.3.0,bus2=BBT164807853.1.2.3.0,Phases=3,Linecode=BT803_BT803_4_3_4,Length=0.037235,Units=km
new line.TBT19209489 bus1=BBT164807834.1.2.3.0,bus2=BBT164807859.1.2.3.0,Phases=3,Linecode=BT803_BT803_4_3_4,Length=0.036745,Units=km
new line.TBT19209490 bus1=BBT164807834.1.2.3.0,bus2=BBT164807860.1.2.3.0,Phases=3,Linecode=BT803_BT803_4_3_4,Length=0.031447,Units=km
new line.TBT19209495 bus1=BBT164807860.1.2.3.0,bus2=BBT164807920.1.2.3.0,Phases=3,Linecode=BT803_BT803_4_3_4,Length=0.035918,Units=km
new line.TBT19209496 bus1=BBT164807920.1.2.3.0,bus2=BBT164807922.1.2.3.0,Phases=3,Linecode=BT803_BT803_4_3_4,Length=0.037235,Units=km
new line.TBT19209500 bus1=BBT164808015.1.2.3.0,bus2=BBT164808016.1.2.3.0,Phases=3,Linecode=BT513_BT513_7_3_1,Length=0.0005,Units=km
new line.TBT19209501 bus1=BBT164808016.1.2.3.0,bus2=BBT164808118.1.2.3.0,Phases=3,Linecode=BT803_BT803_4_3_4,Length=0.025491,Units=km
new line.TBT19209502 bus1=BBT164808016.1.2.3.0,bus2=BBT164808146.1.2.3.0,Phases=3,Linecode=BT803_BT803_4_3_4,Length=0.024692,Units=km
new line.TBT19209503 bus1=BBT164808146.1.2.3.0,bus2=BBT164808154.1.2.3.0,Phases=3,Linecode=BT803_BT803_4_3_4,Length=0.01655,Units=km
new line.TBT19209506 bus1=BBT164808118.1.2.3.0,bus2=BBT164808164.1.2.3.0,Phases=3,Linecode=BT803_BT803_4_3_4,Length=0.037235,Units=km
new line.TBT19209507 bus1=BBT164808164.1.2.3.0,bus2=BBT164808165.1.2.3.0,Phases=3,Linecode=BT803_BT803_4_3_4,Length=0.037235,Units=km
new line.TBT19209508 bus1=BBT164808165.1.2.3.0,bus2=BBT164808168.1.2.3.0,Phases=3,Linecode=BT803_BT803_4_3_4,Length=0.037235,Units=km
new line.TBT19209510 bus1=BBT164808146.1.2.3.0,bus2=BBT164808187.1.2.3.0,Phases=3,Linecode=BT803_BT803_4_3_4,Length=0.03632,Units=km
new line.TBT19209511 bus1=BBT164808187.1.2.3.0,bus2=BBT164808193.1.2.3.0,Phases=3,Linecode=BT803_BT803_4_3_4,Length=0.037235,Units=km
new line.TBT19209512 bus1=BBT164808193.1.2.3.0,bus2=BBT164808199.1.2.3.0,Phases=3,Linecode=BT803_BT803_4_3_4,Length=0.038154,Units=km
new line.TBT19209518 bus1=BBT164808146.1.2.3.0,bus2=BBT164808222.1.2.3.0,Phases=3,Linecode=BT803_BT803_4_3_4,Length=0.039473,Units=km
new line.TBT19209520 bus1=BBT164808154.1.2.3.0,bus2=BBT164808284.1.2.3.0,Phases=3,Linecode=BT803_BT803_4_3_4,Length=0.027292,Units=km
new line.TBT19209521 bus1=BBT164808284.1.2.3.0,bus2=BBT164808309.1.2.3.0,Phases=3,Linecode=BT803_BT803_4_3_4,Length=0.035845,Units=km
new line.TBT19209522 bus1=BBT164808309.1.2.3.0,bus2=BBT164808315.1.2.3.0,Phases=3,Linecode=BT803_BT803_4_3_4,Length=0.036955,Units=km
new line.TBT19209523 bus1=BBT164808284.1.2.3.0,bus2=BBT164808327.1.2.3.0,Phases=3,Linecode=BT803_BT803_4_3_4,Length=0.033309,Units=km
new line.TBT19241185 bus1=BBT165915960.1.2.0,bus2=BBT165915961.1.2.0,Phases=2,Linecode=BT518_BT518_7_2_1,Length=0.0005,Units=km
new line.TBT19156717 bus1=BBT162910178.1.2.0,bus2=BBT162910179.1.2.0,Phases=2,Linecode=BT518_BT518_7_2_1,Length=0.0005,Units=km
new line.TBT19158066 bus1=BBT162971025.1.2.0,bus2=BBT162971026.1.2.0,Phases=2,Linecode=BT518_BT518_7_2_1,Length=0.0005,Units=km
new line.TBT19158404 bus1=BBT162983641.1.2.0,bus2=BBT162983642.1.2.0,Phases=2,Linecode=BT518_BT518_7_2_1,Length=0.0005,Units=km