! Definicao da curva de carga do alimentador

new loadshape.arqCurvaGeracaoGDBT npts=24 interval=1.0 csvfile="arqCurvaGeracaoGDBTDU"

new loadshape.curvaTipicaIP npts=24 interval=1.0 csvfile="curvaTipicaIPDU"

new loadshape.arqCurvaNormA3a-1 npts=24 interval=1.0 csvfile="arqCurvaNormA3a-1DU"

new loadshape.arqCurvaNormCOM1 npts=24 interval=1.0 csvfile="arqCurvaNormCOM1DU"

new loadshape.arqCurvaNormIND1 npts=24 interval=1.0
~ csvfile="arqCurvaNormIND1DU"

new loadshape.arqCurvaNormRUR1 npts=24 interval=1.0
~ csvfile="arqCurvaNormRUR1DU"

new loadshape.arqCurvaNormRES1 npts=24 interval=1.0
~ csvfile="arqCurvaNormRES1DU"

new loadshape.arqCurvaNormA4-1 npts=24 interval=1.0
~ csvfile="arqCurvaNormA4-1DU"

new loadshape.arqCurvaNormCOM2 npts=24 interval=1.0
~ csvfile="arqCurvaNormCOM2DU"

new loadshape.arqCurvaNormIND2 npts=24 interval=1.0
~ csvfile="arqCurvaNormIND2DU"

new loadshape.arqCurvaNormRUR2 npts=24 interval=1.0
~ csvfile="arqCurvaNormRUR2DU"

new loadshape.arqCurvaNormRES2 npts=24 interval=1.0
~ csvfile="arqCurvaNormRES2DU"

new loadshape.arqCurvaNormA4-2 npts=24 interval=1.0
~ csvfile="arqCurvaNormA4-2DU"

new loadshape.arqCurvaNormCOM3 npts=24 interval=1.0
~ csvfile="arqCurvaNormCOM3DU"

new loadshape.arqCurvaNormIND3 npts=24 interval=1.0
~ csvfile="arqCurvaNormIND3DU"

new loadshape.arqCurvaNormRUR3 npts=24 interval=1.0
~ csvfile="arqCurvaNormRUR3DU"

new loadshape.arqCurvaNormRES3 npts=24 interval=1.0
~ csvfile="arqCurvaNormRES3DU"

new loadshape.arqCurvaNormA4-3 npts=24 interval=1.0
~ csvfile="arqCurvaNormA4-3DU"

new loadshape.arqCurvaNormCOM4 npts=24 interval=1.0
~ csvfile="arqCurvaNormCOM4DU"

new loadshape.arqCurvaNormIND4 npts=24 interval=1.0
~ csvfile="arqCurvaNormIND4DU"

new loadshape.arqCurvaNormRUR4 npts=24 interval=1.0
~ csvfile="arqCurvaNormRUR4DU"

new loadshape.arqCurvaNormRES4 npts=24 interval=1.0
~ csvfile="arqCurvaNormRES4DU"

new loadshape.arqCurvaNormA4-4 npts=24 interval=1.0
~ csvfile="arqCurvaNormA4-4DU"

new loadshape.arqCurvaNormRES5 npts=24 interval=1.0
~ csvfile="arqCurvaNormRES5DU"

new loadshape.arqCurvaNormA4-5 npts=24 interval=1.0
~ csvfile="arqCurvaNormA4-5DU"

new loadshape.arqCurvaNormRES6 npts=24 interval=1.0
~ csvfile="arqCurvaNormRES6DU"

new loadshape.arqCurvaNormA4-6 npts=24 interval=1.0
~ csvfile="arqCurvaNormA4-6DU"

new loadshape.arqCurvaNormA4-7 npts=24 interval=1.0
~ csvfile="arqCurvaNormA4-7DU"

new loadshape.arqCurvaNormMT1_1 npts=96 interval=0.25 mult=(0.891 0.839 0.835 0.846 0.828 0.82 0.79 0.828 0.82 0.824 0.801 0.816 0.816 0.798 0.794 0.779 0.809 0.779 0.787 0.798 0.772 0.82 0.809 0.79 0.805 0.805 0.79 0.824 0.813 0.858 0.858 0.824 0.846 0.873 0.835 0.861 0.839 0.831 0.85 0.85 0.888 0.891 0.88 0.933 0.951 0.94 0.951 0.948 0.929 0.918 0.944 0.895 0.921 0.914 0.899 0.906 0.903 0.936 0.929 0.951 0.966 0.948 0.925 0.933 0.944 0.981 1 0.993 0.951 0.948 0.951 0.944 0.936 0.951 0.959 0.978 0.97 0.959 0.944 0.936 0.921 0.925 0.94 0.94 0.925 0.918 0.921 0.888 0.921 0.91 0.918 0.918 0.891 0.888 0.888 0.876)
new loadshape.arqCurvaNormMT1_2 npts=96 interval=0.25 mult=(0.614 0.654 0.614 0.622 0.614 0.575 0.614 0.583 0.606 0.575 0.567 0.575 0.583 0.528 0.535 0.551 0.559 0.559 0.559 0.606 0.591 0.591 0.598 0.48 0.488 0.488 0.535 0.535 0.567 0.63 0.583 0.669 0.622 0.63 0.701 0.693 0.74 0.693 0.709 0.764 0.685 0.685 0.756 0.701 0.701 0.693 0.661 0.709 0.685 0.638 0.677 0.685 0.661 0.724 0.701 0.732 0.74 0.701 0.74 0.717 0.654 0.74 0.717 0.717 0.756 0.701 0.717 0.709 0.685 0.732 0.748 0.787 0.898 0.866 0.929 0.961 0.913 1 0.929 0.906 0.921 0.898 0.898 0.898 0.89 0.819 0.827 0.756 0.764 0.756 0.693 0.748 0.701 0.685 0.709 0.622)
new loadshape.arqCurvaNormMT1_3 npts=96 interval=0.25 mult=(0.616 0.601 0.591 0.585 0.579 0.563 0.585 0.585 0.579 0.557 0.541 0.582 0.557 0.553 0.525 0.547 0.547 0.544 0.569 0.569 0.569 0.569 0.557 0.509 0.503 0.497 0.541 0.569 0.638 0.657 0.689 0.701 0.761 0.821 0.792 0.84 0.865 0.877 0.903 0.903 0.896 0.915 0.915 0.89 0.893 0.959 0.934 0.962 0.909 0.921 0.909 0.918 0.959 0.981 0.987 0.994 0.975 0.987 0.972 0.981 0.956 0.943 0.994 0.956 0.997 1 0.947 0.972 0.918 0.921 0.893 0.868 0.965 0.899 0.959 0.896 0.94 0.903 0.909 0.833 0.843 0.83 0.802 0.827 0.796 0.799 0.733 0.745 0.66 0.673 0.654 0.66 0.638 0.632 0.635 0.607)
new loadshape.arqCurvaNormMT1_4 npts=96 interval=0.25 mult=(0.272 0.315 0.239 0.25 0.272 0.261 0.25 0.272 0.217 0.217 0.315 0.228 0.217 0.207 0.228 0.217 0.261 0.207 0.196 0.196 0.174 0.239 0.283 0.261 0.261 0.37 0.467 0.522 0.587 0.63 0.598 0.652 0.63 0.63 0.663 0.652 0.804 0.783 0.783 0.772 0.75 0.75 0.761 0.88 0.859 0.804 0.859 0.848 0.848 0.793 0.793 0.75 0.804 0.793 0.804 0.793 0.761 0.783 0.761 0.793 0.783 0.826 0.978 1 0.891 0.859 0.902 0.837 0.793 0.783 0.717 0.717 0.728 0.783 0.88 0.826 0.815 0.761 0.707 0.641 0.641 0.609 0.685 0.652 0.565 0.446 0.348 0.261 0.315 0.293 0.239 0.261 0.315 0.272 0.25 0.283)
new loadshape.arqCurvaNormMT1_5 npts=96 interval=0.25 mult=(0.3 0.3 0.3 0.3 0.3 0.3 0.3 0.3 0.3 0.3 0.3 0.3 0.3 0.3 0.3 0.3 0.3 0.3 0.3 0.3 0.3 0.3 0.371 0.486 0.5 0.5 0.5 0.5 0.514 0.514 0.514 0.543 0.914 0.886 0.9 0.886 0.886 0.9 0.914 0.914 0.914 0.914 0.9 0.929 0.929 0.943 0.971 0.943 0.971 0.971 0.957 0.929 0.957 0.957 0.957 0.986 0.971 0.986 1 0.986 0.971 0.971 0.971 0.957 0.986 0.957 0.986 0.971 0.971 0.957 0.914 0.729 0.686 0.643 0.471 0.429 0.457 0.443 0.443 0.414 0.386 0.371 0.386 0.386 0.371 0.386 0.386 0.371 0.371 0.371 0.357 0.357 0.357 0.357 0.371 0.357)
new loadshape.arqCurvaNormMT1_6 npts=96 interval=0.25 mult=(0.329 0.347 0.347 0.341 0.335 0.341 0.353 0.358 0.358 0.353 0.347 0.341 0.347 0.341 0.335 0.341 0.358 0.382 0.37 0.353 0.364 0.364 0.382 0.358 0.37 0.503 0.549 0.647 0.705 0.751 0.798 0.809 0.884 0.936 0.948 0.954 0.948 0.936 0.948 0.988 0.983 0.983 0.983 0.913 0.855 0.879 0.803 0.78 0.775 0.723 0.746 0.757 0.844 0.879 0.908 0.931 0.96 0.983 0.965 1 0.983 0.948 0.948 0.89 0.867 0.861 0.717 0.584 0.549 0.491 0.439 0.41 0.405 0.416 0.399 0.41 0.434 0.428 0.422 0.428 0.445 0.439 0.428 0.416 0.439 0.41 0.41 0.41 0.41 0.399 0.416 0.41 0.399 0.416 0.382 0.393)
new loadshape.arqCurvaNormMT1_7 npts=96 interval=0.25 mult=(0.202 0.202 0.193 0.189 0.185 0.169 0.185 0.185 0.198 0.189 0.185 0.177 0.181 0.185 0.185 0.206 0.198 0.181 0.177 0.173 0.177 0.189 0.185 0.267 0.292 0.263 0.325 0.354 0.383 0.547 0.65 0.671 0.749 0.79 0.835 0.885 0.984 1 0.951 0.934 0.877 0.942 0.909 0.942 0.979 0.918 0.93 0.897 0.864 0.815 0.774 0.77 0.811 0.905 0.934 0.881 0.918 0.959 1 0.934 0.971 0.942 0.955 0.914 0.93 0.938 0.897 0.885 0.897 0.798 0.7 0.63 0.564 0.523 0.473 0.473 0.453 0.391 0.362 0.325 0.305 0.305 0.329 0.267 0.243 0.226 0.218 0.202 0.214 0.214 0.23 0.177 0.185 0.181 0.185 0.198)
new loadshape.arqCurvaNormMT1_8 npts=96 interval=0.25 mult=(0.151 0.148 0.144 0.148 0.148 0.141 0.144 0.151 0.144 0.137 0.148 0.148 0.148 0.144 0.179 0.179 0.179 0.144 0.141 0.134 0.134 0.134 0.131 0.141 0.141 0.137 0.148 0.175 0.22 0.268 0.333 0.423 0.498 0.601 0.694 0.735 0.77 0.804 0.835 0.845 0.89 0.904 0.938 0.931 0.931 0.931 0.911 0.904 0.928 0.907 0.893 0.883 0.859 0.897 0.921 0.942 0.952 0.952 0.955 0.969 0.942 0.959 1 0.99 0.979 0.938 0.931 0.9 0.863 0.828 0.735 0.704 0.591 0.416 0.33 0.285 0.258 0.22 0.213 0.199 0.206 0.196 0.196 0.162 0.162 0.165 0.162 0.158 0.162 0.165 0.165 0.165 0.162 0.155 0.158 0.151)
new loadshape.arqCurvaNormMT1_9 npts=96 interval=0.25 mult=(0.06 0.06 0.066 0.071 0.066 0.066 0.057 0.063 0.066 0.063 0.06 0.063 0.063 0.063 0.063 0.06 0.063 0.063 0.06 0.06 0.069 0.066 0.063 0.06 0.071 0.071 0.126 0.229 0.357 0.48 0.58 0.66 0.646 0.717 0.763 0.786 0.8 0.871 0.917 0.974 0.909 0.911 0.963 0.869 0.671 0.66 0.629 0.569 0.531 0.48 0.54 0.557 0.654 0.803 0.886 0.931 0.946 0.986 1 0.929 0.931 0.931 0.949 0.929 0.926 0.909 0.909 0.629 0.34 0.226 0.143 0.109 0.1 0.111 0.094 0.089 0.086 0.086 0.083 0.083 0.08 0.074 0.071 0.071 0.071 0.071 0.069 0.066 0.077 0.071 0.066 0.071 0.069 0.066 0.066 0.066)
new loadshape.arqCurvaNormMT1_10 npts=96 interval=0.25 mult=(0.082 0.082 0.082 0.082 0.082 0.082 0.082 0.082 0.082 0.082 0.102 0.102 0.102 0.102 0.082 0.102 0.082 0.102 0.082 0.082 0.082 0.082 0.082 0.082 0.082 0.082 0.082 0.102 0.102 0.082 0.082 0.082 0.102 0.122 0.143 0.265 0.49 0.878 0.633 0.714 0.735 0.735 0.714 0.735 0.755 0.714 0.735 0.755 0.755 0.735 0.776 0.776 0.776 0.776 0.735 0.857 0.857 0.857 0.857 0.939 0.939 0.918 0.918 0.939 0.959 0.959 0.939 0.939 0.857 1 0.959 0.898 0.857 0.918 0.939 0.939 0.918 0.755 0.673 0.714 0.735 0.694 0.673 0.673 0.694 0.755 0.653 0.714 0.429 0.224 0.224 0.204 0.122 0.122 0.102 0.102)
new loadshape.arqCurvaNormMT1_11 npts=96 interval=0.25 mult=(0.066 0.058 0.058 0.058 0.058 0.058 0.058 0.058 0.058 0.058 0.058 0.058 0.058 0.058 0.058 0.058 0.05 0.05 0.083 0.165 0.165 0.182 0.19 0.355 0.438 0.455 0.595 0.793 0.893 0.967 0.959 0.934 0.876 0.917 0.802 0.884 0.992 1 0.95 0.975 0.992 0.942 0.785 0.512 0.479 0.413 0.438 0.512 0.702 0.835 0.843 0.876 0.934 0.975 0.95 0.802 0.851 0.81 0.851 0.835 0.785 0.661 0.645 0.504 0.438 0.397 0.322 0.207 0.157 0.132 0.132 0.099 0.132 0.14 0.149 0.124 0.116 0.116 0.099 0.099 0.116 0.099 0.091 0.083 0.083 0.083 0.083 0.091 0.066 0.058 0.058 0.066 0.066 0.066 0.058 0.058)
new loadshape.arqCurvaNormMT1_12 npts=96 interval=0.25 mult=(0.125 0.125 0.138 0.138 0.138 0.125 0.138 0.138 0.138 0.138 0.125 0.138 0.15 0.15 0.15 0.125 0.125 0.125 0.138 0.162 0.138 0.125 0.113 0.1 0.075 0.075 0.075 0.113 0.162 0.162 0.138 0.15 0.287 0.362 0.45 0.575 0.475 0.575 0.6 0.562 0.588 0.65 0.725 0.75 0.812 0.787 0.812 0.738 0.55 0.512 0.725 0.812 1 0.987 0.75 0.937 0.825 0.725 0.763 0.55 0.525 0.562 0.75 0.837 0.675 0.512 0.613 0.537 0.5 0.375 0.175 0.188 0.212 0.2 0.238 0.225 0.238 0.238 0.238 0.225 0.238 0.212 0.225 0.238 0.287 0.238 0.275 0.25 0.275 0.225 0.25 0.225 0.225 0.225 0.212 0.2)
new loadshape.arqCurvaNormMT1_13 npts=96 interval=0.25 mult=(0.178 0.156 0.156 0.156 0.178 0.156 0.156 0.178 0.178 0.178 0.156 0.156 0.156 0.178 0.156 0.133 0.133 0.156 0.156 0.156 0.156 0.178 0.222 0.2 0.2 0.356 0.4 0.378 0.6 1 0.867 0.689 0.644 0.756 0.756 0.622 0.8 0.622 0.556 0.578 0.6 0.511 0.8 0.667 0.511 0.489 0.467 0.422 0.578 0.378 0.4 0.444 0.422 0.467 0.6 0.6 0.578 0.622 0.6 0.444 0.422 0.444 0.467 0.378 0.333 0.378 0.467 0.333 0.2 0.2 0.178 0.178 0.178 0.178 0.156 0.156 0.156 0.133 0.133 0.156 0.156 0.133 0.178 0.178 0.156 0.156 0.178 0.133 0.156 0.156 0.133 0.133 0.133 0.133 0.156 0.156)
new loadshape.arqCurvaNormMT1_14 npts=96 interval=0.25 mult=(0.38 0.39 0.385 0.385 0.38 0.35 0.355 0.36 0.38 0.37 0.35 0.345 0.335 0.365 0.335 0.34 0.36 0.34 0.34 0.34 0.345 0.36 0.425 0.415 0.425 0.405 0.395 0.425 0.385 0.4 0.435 0.4 0.415 0.445 0.47 0.475 0.395 0.33 0.34 0.36 0.315 0.305 0.3 0.32 0.32 0.305 0.315 0.28 0.29 0.3 0.265 0.305 0.33 0.34 0.36 0.37 0.385 0.365 0.39 0.41 0.415 0.44 0.42 0.41 0.375 0.385 0.395 0.37 0.38 0.365 0.48 0.575 0.635 0.745 0.78 0.86 0.89 0.98 0.925 0.98 0.95 0.96 0.975 0.985 1 0.945 0.915 0.88 0.82 0.79 0.695 0.54 0.46 0.415 0.43 0.405)
new loadshape.arqCurvaNormMT1_15 npts=96 interval=0.25 mult=(0.195 0.195 0.195 0.195 0.195 0.195 0.195 0.195 0.201 0.195 0.188 0.188 0.188 0.188 0.182 0.195 0.195 0.188 0.188 0.188 0.201 0.182 0.201 0.182 0.169 0.175 0.175 0.24 0.279 0.338 0.364 0.39 0.455 0.435 0.442 0.474 0.526 0.545 0.545 0.545 0.539 0.552 0.565 0.565 0.578 0.591 0.643 0.636 0.63 0.578 0.623 0.649 0.753 0.831 0.89 0.942 0.994 0.994 1 0.994 0.987 0.968 0.922 0.877 0.903 0.903 0.831 0.714 0.61 0.552 0.494 0.519 0.474 0.461 0.344 0.344 0.299 0.292 0.286 0.266 0.273 0.26 0.247 0.26 0.247 0.24 0.247 0.234 0.227 0.234 0.234 0.227 0.221 0.227 0.221 0.221)
new loadshape.arqCurvaNormMT1_16 npts=96 interval=0.25 mult=(0.365 0.432 0.392 0.324 0.338 0.311 0.311 0.311 0.324 0.324 0.351 0.351 0.338 0.351 0.365 0.311 0.324 0.378 0.392 0.378 0.676 0.608 0.608 0.568 0.581 0.703 0.689 0.703 0.716 0.743 0.743 0.784 0.77 0.892 0.892 0.946 0.878 0.892 0.959 0.973 0.946 1 0.946 0.905 0.932 0.946 0.959 0.892 0.838 0.865 0.73 0.905 0.919 0.932 0.892 0.959 0.959 0.865 0.986 0.932 0.919 0.919 1 0.946 0.905 0.919 0.892 0.676 0.001 0.001 0.001 0.001 0.001 0.001 0.001 0.001 0.001 0.001 0.001 0.001 0.419 0.595 0.608 0.608 0.527 0.541 0.5 0.527 0.486 0.473 0.527 0.473 0.486 0.554 0.5 0.473)
new loadshape.arqCurvaNormMT1_17 npts=96 interval=0.25 mult=(0.959 0.959 0.959 0.965 0.959 0.953 0.959 0.935 0.924 0.918 0.924 0.924 0.918 0.924 0.918 0.912 0.918 0.912 0.918 0.929 0.965 0.994 0.988 0.947 0.965 0.965 0.971 0.971 0.959 0.882 0.718 0.718 0.6 0.565 0.571 0.576 0.571 0.582 0.6 0.618 0.659 0.659 0.653 0.535 0.288 0.288 0.282 0.282 0.276 0.247 0.159 0.165 0.206 0.271 0.276 0.271 0.265 0.265 0.253 0.259 0.253 0.253 0.224 0.147 0.147 0.153 0.165 0.141 0.112 0.012 0.012 0.012 0.001 0.001 0.001 0.001 0.001 0.001 0.001 0.024 0.376 0.547 0.735 0.676 0.718 0.771 0.929 0.953 0.918 0.918 0.971 0.971 0.959 0.924 0.912 0.941)
new loadshape.arqCurvaNormMT1_18 npts=96 interval=0.25 mult=(0.84 0.833 0.853 0.859 0.955 0.91 0.865 0.724 0.667 0.763 0.84 0.769 0.724 0.737 0.756 0.814 0.699 0.718 0.615 0.494 0.481 0.417 0.385 0.385 0.455 0.468 0.314 0.378 0.385 0.397 0.474 0.519 0.519 0.519 0.513 0.5 0.558 0.654 0.628 0.75 0.904 0.987 0.981 0.994 1 0.929 0.891 0.91 0.737 0.635 0.654 0.686 0.75 0.814 0.808 0.814 0.699 0.673 0.724 0.705 0.673 0.603 0.596 0.513 0.468 0.468 0.449 0.34 0.051 0.019 0.019 0.019 0.019 0.019 0.013 0.013 0.013 0.013 0.013 0.077 0.244 0.365 0.474 0.603 0.724 0.853 0.904 0.942 0.968 0.891 0.84 0.865 0.962 0.962 0.84 0.84)
new loadshape.arqCurvaNormMT1_19 npts=96 interval=0.25 mult=(0.589 0.687 0.58 0.509 0.634 0.545 0.598 0.714 0.562 0.589 0.661 0.5 0.634 0.696 0.562 0.509 0.652 0.446 0.598 0.58 0.562 0.598 0.705 0.571 0.652 0.741 0.643 0.598 0.759 0.625 0.687 0.643 0.571 0.83 0.857 0.786 0.866 0.839 0.812 0.83 0.973 0.83 1 0.875 0.955 0.938 0.884 0.946 0.768 0.902 0.866 0.804 0.893 0.875 0.964 0.92 0.92 0.946 0.938 0.777 0.938 0.929 0.875 0.812 0.839 0.705 0.509 0.464 0.438 0.313 0.339 0.321 0.33 0.348 0.268 0.196 0.223 0.214 0.259 0.295 0.295 0.384 0.518 0.598 0.491 0.732 0.607 0.554 0.723 0.527 0.67 0.634 0.598 0.75 0.75 0.58)
new loadshape.arqCurvaNormMT1_20 npts=96 interval=0.25 mult=(0.866 0.896 0.896 0.91 0.896 0.881 0.896 0.881 0.866 0.881 0.881 0.881 0.881 0.851 0.866 0.851 0.866 0.866 0.866 0.866 0.851 0.851 0.761 0.597 0.433 0.403 0.403 0.358 0.194 0.179 0.149 0.179 0.104 0.104 0.179 0.119 0.104 0.104 0.119 0.119 0.119 0.104 0.104 0.09 0.104 0.119 0.104 0.134 0.09 0.134 0.104 0.119 0.104 0.119 0.104 0.119 0.119 0.119 0.119 0.179 0.209 0.179 0.224 0.179 0.194 0.254 0.194 0.209 0.194 0.373 0.418 0.627 0.791 0.985 0.97 0.985 1 0.896 0.821 0.836 0.821 0.866 0.851 0.851 0.91 0.955 0.97 0.97 0.97 0.97 0.94 0.925 0.881 0.881 0.896 0.881)
new loadshape.arqCurvaNormMT1_21 npts=96 interval=0.25 mult=(0.806 0.796 0.796 0.796 0.796 0.796 0.796 0.806 0.806 0.786 0.786 0.796 0.796 0.825 0.806 0.806 0.816 0.816 0.825 0.796 0.816 0.854 0.816 0.728 0.67 0.524 0.466 0.408 0.32 0.33 0.427 0.408 0.369 0.417 0.466 0.388 0.417 0.417 0.437 0.476 0.398 0.417 0.417 0.427 0.398 0.417 0.388 0.408 0.398 0.398 0.408 0.437 0.495 0.437 0.427 0.456 0.456 0.466 0.466 0.476 0.476 0.485 0.485 0.485 0.466 0.466 0.485 0.456 0.466 0.495 0.466 0.544 0.738 0.893 0.971 1 0.971 0.971 0.951 0.922 0.883 0.893 0.864 0.893 0.854 0.854 0.864 0.864 0.893 0.854 0.845 0.835 0.845 0.854 0.854 0.864)
new loadshape.arqCurvaNormMT1_22 npts=96 interval=0.25 mult=(0.875 0.865 0.865 0.833 0.833 0.854 0.865 0.833 0.844 0.833 0.833 0.844 0.854 0.833 0.833 0.833 0.844 0.823 0.833 0.844 0.844 0.865 0.833 0.781 0.552 0.208 0.208 0.25 0.25 0.281 0.302 0.323 0.385 0.354 0.469 0.51 0.5 0.51 0.49 0.49 0.521 0.521 0.531 0.51 0.542 0.552 0.531 0.542 0.573 0.563 0.563 0.542 0.552 0.542 0.594 0.563 0.552 0.563 0.635 0.604 0.604 0.573 0.594 0.583 0.583 0.583 0.552 0.542 0.635 0.563 0.552 0.615 0.698 0.802 0.948 0.99 0.958 1 0.99 0.958 0.979 0.958 0.938 0.906 0.906 0.917 0.917 0.917 0.896 0.885 0.906 0.917 0.927 0.906 0.906 0.906)
new loadshape.arqCurvaNormMT1_23 npts=96 interval=0.25 mult=(0.805 0.78 0.805 0.78 0.78 0.805 0.805 0.78 0.78 0.805 0.805 0.805 0.805 0.78 0.78 0.805 0.78 0.78 0.805 0.78 0.756 0.659 0.561 0.488 0.39 0.39 0.366 0.39 0.439 0.585 0.537 0.732 0.61 0.707 0.634 0.561 0.537 0.829 1 0.78 0.829 0.756 0.634 0.634 0.659 0.659 0.585 0.61 0.585 0.585 0.561 0.512 0.732 0.61 0.683 0.659 0.732 0.659 0.707 0.683 0.829 0.976 0.732 0.537 0.537 0.585 0.561 0.537 0.512 0.537 0.537 0.756 0.951 0.878 0.878 0.854 0.829 0.829 0.805 0.78 0.805 0.756 0.756 0.78 0.805 0.756 0.78 0.732 0.756 0.732 0.732 0.756 0.732 0.732 0.732 0.756)
new loadshape.arqCurvaNormMT1_24 npts=96 interval=0.25 mult=(0.585 0.717 0.66 0.736 0.642 0.642 0.415 0.396 0.547 0.642 0.698 0.679 0.642 0.396 0.396 0.547 0.66 0.755 0.811 0.83 0.774 0.547 0.509 0.642 0.736 0.66 0.66 0.642 0.642 0.509 0.491 0.66 0.887 0.83 0.887 0.868 0.774 0.528 0.34 0.472 0.566 0.547 0.811 0.849 0.811 0.585 0.472 0.623 0.698 0.585 0.509 0.491 0.472 0.509 0.321 0.302 0.472 0.868 0.774 0.66 0.66 0.604 0.491 0.547 0.528 0.585 0.566 0.547 0.679 0.604 0.415 0.415 0.717 0.943 1 0.962 0.943 0.906 0.736 0.604 0.736 0.849 0.849 0.849 0.83 0.906 0.698 0.566 0.811 0.698 0.66 0.66 0.679 0.623 0.415 0.415)
new loadshape.arqCurvaNormMT1_25 npts=96 interval=0.25 mult=(0.593 0.56 0.593 0.582 0.593 0.538 0.571 0.571 0.56 0.56 0.527 0.56 0.549 0.538 0.516 0.538 0.549 0.582 0.615 0.637 0.714 0.725 0.725 0.681 0.703 0.846 0.802 0.89 0.934 0.956 0.934 0.945 0.967 0.912 0.945 0.967 0.978 0.934 0.901 0.912 0.824 0.835 0.824 0.824 0.725 0.725 0.725 0.769 0.703 0.648 0.659 0.681 0.703 0.714 0.758 0.791 0.758 0.758 0.824 0.824 0.791 0.758 0.703 0.714 0.747 0.802 0.758 0.813 0.824 0.791 0.78 0.747 0.835 0.89 0.934 0.923 0.945 0.989 0.989 0.989 0.956 0.956 1 0.967 0.956 0.956 0.89 0.868 0.868 0.835 0.824 0.78 0.725 0.758 0.714 0.703)
new loadshape.arqCurvaNormMT1_26 npts=96 interval=0.25 mult=(0.472 0.472 0.465 0.457 0.472 0.48 0.48 0.488 0.465 0.457 0.472 0.48 0.433 0.472 0.449 0.465 0.465 0.441 0.441 0.465 0.457 0.465 0.465 0.449 0.417 0.417 0.465 0.433 0.488 0.504 0.535 0.622 0.559 0.575 0.614 0.63 0.638 0.654 0.669 0.78 0.858 0.811 0.85 1 0.921 0.969 0.882 0.811 0.866 0.913 0.906 0.827 0.835 0.819 0.874 0.898 0.748 0.661 0.693 0.685 0.685 0.669 0.614 0.614 0.598 0.575 0.543 0.583 0.591 0.583 0.567 0.559 0.583 0.567 0.591 0.598 0.559 0.535 0.528 0.535 0.52 0.512 0.52 0.528 0.512 0.543 0.504 0.504 0.504 0.528 0.496 0.496 0.504 0.504 0.504 0.488)
new loadshape.arqCurvaNormMT2_1 npts=96 interval=0.25 mult=(0.869 0.873 0.931 0.895 0.913 0.889 0.907 0.873 0.901 0.865 0.893 0.885 0.863 0.883 0.873 0.873 0.889 0.889 0.849 0.861 0.915 0.859 0.887 0.865 0.837 0.845 0.841 0.849 0.837 0.859 0.855 0.841 0.833 0.802 0.851 0.887 0.863 0.921 0.923 0.94 0.94 0.853 0.879 0.879 0.944 0.927 0.927 0.931 0.911 0.927 0.901 0.879 0.865 0.919 0.935 0.962 0.944 0.954 0.96 0.974 0.962 0.913 0.923 0.968 0.966 0.937 0.944 0.921 0.962 0.946 0.927 0.913 0.972 0.964 0.958 0.919 0.992 0.97 1 0.931 0.95 0.935 0.956 0.95 0.98 0.903 0.972 0.927 0.956 0.921 0.948 0.929 0.958 0.907 0.903 0.919)
new loadshape.arqCurvaNormMT2_2 npts=96 interval=0.25 mult=(0.61 0.589 0.595 0.606 0.594 0.604 0.604 0.595 0.585 0.586 0.591 0.589 0.595 0.599 0.6 0.597 0.571 0.558 0.559 0.57 0.602 0.614 0.595 0.624 0.683 0.7 0.691 0.699 0.751 0.785 0.838 0.861 0.857 0.877 0.895 0.886 0.92 0.947 0.95 0.955 0.95 0.946 0.966 0.955 0.94 0.949 0.968 0.964 0.965 0.971 0.966 0.978 0.978 0.988 1 0.993 0.994 0.99 0.976 0.965 0.954 0.972 0.963 0.967 0.927 0.943 0.947 0.917 0.904 0.892 0.892 0.89 0.907 0.9 0.894 0.886 0.873 0.863 0.855 0.855 0.853 0.853 0.819 0.811 0.804 0.795 0.782 0.747 0.698 0.67 0.651 0.66 0.648 0.647 0.64 0.637)
new loadshape.arqCurvaNormMT2_3 npts=96 interval=0.25 mult=(0.365 0.373 0.365 0.369 0.365 0.371 0.382 0.373 0.371 0.362 0.362 0.36 0.358 0.325 0.325 0.317 0.323 0.321 0.328 0.325 0.345 0.336 0.332 0.312 0.314 0.358 0.389 0.424 0.439 0.467 0.511 0.614 0.723 0.729 0.777 0.797 0.867 0.88 0.889 0.882 0.978 0.993 0.963 1 0.993 0.969 0.873 0.889 0.856 0.784 0.838 0.852 0.847 0.858 0.893 0.893 0.937 0.965 0.95 0.934 0.878 0.939 0.967 0.98 0.913 0.821 0.812 0.79 0.801 0.753 0.664 0.64 0.633 0.694 0.648 0.633 0.638 0.627 0.574 0.502 0.474 0.474 0.485 0.489 0.478 0.465 0.472 0.459 0.459 0.45 0.434 0.428 0.424 0.428 0.421 0.421)
new loadshape.arqCurvaNormMT2_4 npts=96 interval=0.25 mult=(0.03 0.025 0.03 0.03 0.03 0.03 0.03 0.03 0.03 0.035 0.035 0.03 0.03 0.03 0.035 0.03 0.035 0.279 0.413 0.587 0.697 0.721 0.697 0.721 0.697 0.682 0.672 0.711 0.687 0.706 0.672 0.632 0.622 0.647 0.632 0.637 0.642 0.677 0.677 0.682 0.672 0.721 0.731 0.98 0.95 0.94 0.975 0.94 0.93 0.935 0.965 0.796 0.672 0.687 0.692 0.697 0.647 0.647 0.677 0.652 0.617 0.622 0.672 0.716 0.697 0.667 0.657 0.657 0.657 0.642 0.527 0.711 0.672 0.627 0.617 0.677 0.662 0.647 0.657 0.642 0.647 0.617 0.622 0.642 0.672 0.657 0.627 0.617 0.632 0.642 0.378 0.632 0.055 0.06 0.06 0.055)
new loadshape.arqCurvaNormMT2_5 npts=96 interval=0.25 mult=(0.148 0.145 0.146 0.142 0.146 0.145 0.145 0.141 0.142 0.14 0.141 0.143 0.143 0.142 0.141 0.134 0.14 0.141 0.14 0.141 0.14 0.137 0.157 0.178 0.181 0.229 0.196 0.246 0.267 0.344 0.372 0.474 0.562 0.697 0.722 0.748 0.806 0.811 0.825 0.864 0.839 0.843 0.851 0.842 0.808 0.806 0.776 0.748 0.731 0.725 0.759 0.801 0.826 0.877 0.872 0.926 0.899 0.952 0.948 1 0.95 0.955 0.94 0.978 0.923 0.911 0.926 0.861 0.787 0.724 0.674 0.603 0.456 0.401 0.353 0.306 0.265 0.234 0.215 0.21 0.2 0.192 0.19 0.188 0.184 0.189 0.182 0.175 0.174 0.168 0.17 0.173 0.171 0.168 0.169 0.166)
new loadshape.arqCurvaNormMT2_6 npts=96 interval=0.25 mult=(0.057 0.063 0.063 0.063 0.057 0.051 0.044 0.051 0.051 0.044 0.044 0.044 0.051 0.044 0.051 0.044 0.044 0.063 0.063 0.07 0.063 0.051 0.051 0.051 0.057 0.044 0.108 0.19 0.367 0.614 0.608 0.785 0.785 0.835 0.835 0.854 0.918 0.88 0.93 0.943 0.981 1 0.899 0.715 0.69 0.696 0.684 0.791 0.905 0.88 0.924 0.905 0.943 0.962 0.943 0.956 0.956 0.924 0.911 0.899 0.949 0.968 0.956 0.867 0.861 0.88 0.823 0.791 0.81 0.804 0.829 0.88 0.905 0.892 0.937 0.905 0.905 0.848 0.905 0.816 0.829 0.677 0.494 0.196 0.139 0.076 0.063 0.07 0.063 0.07 0.057 0.057 0.063 0.063 0.082 0.076)
new loadshape.arqCurvaNormMT2_7 npts=96 interval=0.25 mult=(0.093 0.093 0.093 0.099 0.115 0.093 0.09 0.093 0.093 0.09 0.093 0.093 0.096 0.093 0.09 0.09 0.093 0.09 0.09 0.09 0.093 0.09 0.09 0.093 0.093 0.09 0.093 0.093 0.093 0.09 0.09 0.093 0.096 0.115 0.136 0.158 0.173 0.251 0.415 0.619 0.616 0.653 0.783 0.808 0.82 0.836 0.833 0.876 0.892 0.889 0.851 0.885 0.892 0.895 0.907 0.92 0.932 0.935 0.932 0.926 0.941 0.96 0.96 0.957 0.95 0.944 0.944 0.941 0.913 0.892 0.879 0.873 0.867 0.861 0.858 0.845 0.839 0.83 0.799 0.765 0.752 0.737 0.731 0.697 0.65 0.647 0.628 0.498 0.393 0.245 0.146 0.142 0.108 0.08 0.084 0.08)
new loadshape.arqCurvaNormMT2_8 npts=96 interval=0.25 mult=(0.07 0.07 0.07 0.131 0.183 0.162 0.07 0.07 0.07 0.109 0.179 0.179 0.074 0.066 0.07 0.157 0.179 0.096 0.07 0.07 0.07 0.153 0.179 0.127 0.079 0.079 0.083 0.166 0.192 0.14 0.1 0.328 0.389 0.485 0.493 0.45 0.629 0.856 0.847 0.956 0.943 0.965 0.891 0.934 0.939 0.934 0.93 0.969 0.991 0.983 0.965 0.983 0.991 0.983 1 1 1 1 0.93 0.974 0.978 0.987 0.983 0.961 0.847 0.83 0.834 0.79 0.769 0.69 0.664 0.528 0.507 0.424 0.218 0.114 0.1 0.096 0.14 0.183 0.201 0.096 0.096 0.096 0.092 0.148 0.192 0.205 0.127 0.07 0.07 0.079 0.1 0.179 0.1 0.096)
new loadshape.arqCurvaNormMT2_9 npts=96 interval=0.25 mult=(0.089 0.093 0.089 0.089 0.093 0.089 0.089 0.082 0.075 0.068 0.075 0.068 0.046 0.043 0.05 0.043 0.043 0.043 0.043 0.057 0.046 0.043 0.046 0.064 0.057 0.05 0.054 0.057 0.175 0.218 0.264 0.386 0.371 0.525 0.511 0.564 0.511 0.771 0.971 0.954 0.968 0.964 0.914 0.986 0.796 0.818 0.993 0.954 0.921 0.854 0.868 0.932 0.968 0.971 0.95 0.989 1 0.954 0.943 0.8 0.789 0.675 0.7 0.293 0.114 0.093 0.082 0.061 0.057 0.054 0.046 0.054 0.061 0.079 0.079 0.079 0.079 0.086 0.079 0.079 0.079 0.079 0.089 0.079 0.075 0.079 0.079 0.075 0.079 0.079 0.075 0.071 0.071 0.079 0.071 0.079)
new loadshape.arqCurvaNormMT2_10 npts=96 interval=0.25 mult=(0.043 0.043 0.043 0.042 0.043 0.042 0.043 0.043 0.041 0.043 0.042 0.041 0.042 0.043 0.041 0.043 0.041 0.041 0.04 0.043 0.043 0.043 0.041 0.043 0.04 0.092 0.12 0.18 0.402 0.612 0.669 0.789 0.825 0.896 0.943 1 0.945 0.964 0.972 0.949 0.955 0.941 0.99 0.864 0.632 0.463 0.423 0.421 0.502 0.56 0.559 0.54 0.699 0.879 0.868 0.807 0.89 0.89 0.917 0.877 0.766 0.87 0.895 0.865 0.871 0.839 0.689 0.453 0.169 0.078 0.068 0.054 0.053 0.064 0.072 0.076 0.067 0.067 0.07 0.068 0.063 0.062 0.067 0.057 0.052 0.057 0.05 0.049 0.048 0.05 0.05 0.048 0.048 0.047 0.048 0.047)
new loadshape.arqCurvaNormMT2_11 npts=96 interval=0.25 mult=(0.057 0.057 0.059 0.057 0.063 0.06 0.059 0.075 0.102 0.109 0.138 0.152 0.273 0.259 0.237 0.28 0.289 0.307 0.332 0.338 0.466 0.526 0.609 0.638 0.641 0.644 0.67 0.708 0.754 0.922 0.899 0.846 0.927 0.812 0.813 0.845 0.856 0.881 0.822 0.865 0.97 0.904 1 0.974 0.878 0.846 0.852 0.754 0.772 0.761 0.782 0.783 0.833 0.78 0.872 0.83 0.818 0.713 0.704 0.705 0.75 0.77 0.779 0.786 0.714 0.624 0.609 0.468 0.172 0.114 0.069 0.029 0.029 0.027 0.026 0.023 0.022 0.042 0.053 0.039 0.039 0.037 0.036 0.032 0.03 0.04 0.057 0.057 0.069 0.095 0.086 0.086 0.083 0.082 0.083 0.082)
new loadshape.arqCurvaNormMT2_12 npts=96 interval=0.25 mult=(0.17 0.244 0.284 0.295 0.307 0.295 0.29 0.29 0.295 0.267 0.21 0.216 0.239 0.273 0.222 0.227 0.25 0.398 0.426 0.415 0.313 0.409 0.483 0.545 0.83 1 0.96 0.915 0.733 0.699 0.773 0.761 0.688 0.693 0.756 0.682 0.642 0.625 0.767 0.812 0.722 0.54 0.631 0.727 0.716 0.676 0.648 0.631 0.79 0.756 0.847 0.733 0.619 0.659 0.733 0.597 0.568 0.54 0.528 0.653 0.705 0.665 0.551 0.722 0.659 0.574 0.585 0.534 0.551 0.67 0.472 0.534 0.534 0.449 0.483 0.534 0.432 0.369 0.375 0.352 0.358 0.335 0.307 0.278 0.256 0.239 0.244 0.21 0.17 0.188 0.182 0.199 0.205 0.199 0.193 0.199)
new loadshape.arqCurvaNormMT2_13 npts=96 interval=0.25 mult=(0.625 0.598 0.588 0.588 0.575 0.567 0.577 0.58 0.572 0.559 0.556 0.556 0.554 0.556 0.556 0.57 0.562 0.546 0.554 0.57 0.575 0.591 0.541 0.444 0.428 0.365 0.399 0.42 0.42 0.512 0.517 0.585 0.538 0.593 0.638 0.619 0.633 0.669 0.669 0.672 0.709 0.727 0.74 0.727 0.756 0.753 0.672 0.619 0.654 0.58 0.598 0.606 0.535 0.593 0.564 0.58 0.617 0.706 0.727 0.698 0.703 0.717 0.74 0.69 0.701 0.745 0.748 0.748 0.743 0.785 0.795 0.843 0.9 0.971 0.948 0.963 0.979 0.987 1 0.942 0.911 0.848 0.79 0.782 0.772 0.822 0.827 0.871 0.848 0.84 0.827 0.793 0.717 0.664 0.643 0.625)
new loadshape.arqCurvaNormMT2_14 npts=96 interval=0.25 mult=(0.111 0.111 0.116 0.107 0.12 0.107 0.111 0.107 0.107 0.111 0.111 0.107 0.107 0.107 0.107 0.111 0.111 0.116 0.107 0.111 0.107 0.107 0.102 0.08 0.076 0.08 0.178 0.151 0.124 0.2 0.24 0.444 0.253 0.244 0.431 0.333 0.244 0.356 0.427 0.596 0.4 0.427 0.564 0.373 0.36 0.391 0.462 0.302 0.289 0.444 0.298 0.329 0.618 0.618 0.796 0.92 0.778 0.8 0.911 1 0.991 0.751 0.964 0.782 0.884 0.924 0.827 0.907 0.622 0.618 0.756 0.636 0.564 0.756 0.662 0.751 0.782 0.693 0.791 0.773 0.907 0.649 0.711 0.676 0.578 0.622 0.533 0.44 0.351 0.218 0.16 0.138 0.133 0.133 0.133 0.133)
new loadshape.arqCurvaNormMT2_15 npts=96 interval=0.25 mult=(0.048 0.05 0.05 0.05 0.048 0.048 0.062 0.064 0.064 0.062 0.064 0.062 0.064 0.053 0.048 0.048 0.048 0.048 0.046 0.046 0.043 0.043 0.039 0.041 0.037 0.037 0.046 0.05 0.217 0.455 0.62 0.723 0.728 0.865 0.943 1 1 0.947 0.902 0.828 0.872 0.881 0.874 0.947 0.927 0.684 0.554 0.195 0.108 0.069 0.057 0.108 0.204 0.254 0.387 0.478 0.556 0.506 0.419 0.199 0.167 0.192 0.22 0.352 0.279 0.16 0.144 0.165 0.126 0.128 0.103 0.087 0.064 0.066 0.066 0.048 0.034 0.032 0.037 0.034 0.037 0.046 0.053 0.05 0.048 0.048 0.048 0.048 0.048 0.048 0.05 0.048 0.048 0.055 0.064 0.064)
new loadshape.arqCurvaNormMT2_16 npts=96 interval=0.25 mult=(0.998 0.986 0.989 0.991 0.991 1 0.991 0.977 0.971 0.968 0.977 0.984 0.966 0.964 0.966 0.959 0.973 0.977 0.98 0.971 0.986 0.986 0.984 0.968 0.966 0.964 0.955 0.964 0.973 0.984 0.968 0.973 0.973 0.955 0.957 0.957 0.952 0.946 0.957 0.957 0.95 0.959 0.964 0.955 0.962 0.959 0.952 0.957 0.941 0.934 0.934 0.952 0.932 0.946 0.955 0.975 0.959 0.959 0.971 0.973 0.966 0.962 0.964 0.955 0.952 0.957 0.878 0.656 0.355 0.072 0.009 0.009 0.009 0.009 0.009 0.009 0.009 0.009 0.009 0.009 0.312 0.514 0.647 0.681 0.672 0.903 0.993 0.991 0.993 0.995 0.991 0.993 0.993 0.991 0.991 0.975)
new loadshape.arqCurvaNormMT2_17 npts=96 interval=0.25 mult=(0.676 0.71 0.653 0.611 0.615 0.595 0.691 0.714 0.672 0.698 0.656 0.656 0.653 0.729 0.683 0.672 0.676 0.672 0.66 0.561 0.553 0.63 0.656 0.592 0.63 0.584 0.645 0.691 0.714 0.863 0.802 0.813 0.744 0.885 0.836 0.847 0.897 0.844 0.908 0.954 0.87 0.824 0.954 0.931 0.893 0.977 0.95 0.947 0.943 0.954 0.981 0.897 0.821 0.874 0.92 0.985 0.939 0.981 0.84 0.908 0.969 0.985 0.977 0.977 0.916 0.771 0.729 0.656 0.313 0.244 0.29 0.29 0.321 0.34 0.351 0.363 0.37 0.366 0.351 0.336 0.443 0.573 0.607 0.664 0.775 0.779 0.84 0.836 0.786 0.779 0.775 0.79 0.79 0.779 0.737 0.786)
new loadshape.arqCurvaNormMT2_18 npts=96 interval=0.25 mult=(0.5 0.481 0.474 0.468 0.442 0.583 0.699 0.788 0.75 0.756 0.641 0.615 0.635 0.615 0.635 0.641 0.622 0.59 0.564 0.577 0.583 0.577 0.603 0.731 0.846 0.846 0.744 0.769 0.756 0.782 0.821 0.833 0.744 0.865 0.942 1 0.981 0.936 0.872 0.808 0.872 0.929 0.756 0.59 0.365 0.417 0.429 0.442 0.519 0.462 0.481 0.462 0.519 0.622 0.564 0.603 0.577 0.615 0.564 0.526 0.513 0.494 0.532 0.551 0.538 0.462 0.5 0.372 0.263 0.141 0.141 0.154 0.173 0.154 0.128 0.115 0.109 0.109 0.109 0.115 0.096 0.128 0.128 0.173 0.519 0.635 0.667 0.622 0.699 0.558 0.538 0.513 0.494 0.494 0.506 0.462)