! Definicao da curva de carga do alimentador

new loadshape.arqCurvaGeracaoGDBT npts=24 interval=1.0
~ csvfile="arqCurvaGeracaoGDBTDO"

new loadshape.curvaTipicaIP npts=24 interval=1.0
~ csvfile="curvaTipicaIPDO"

new loadshape.arqCurvaNormA3a-1 npts=24 interval=1.0
~ csvfile="arqCurvaNormA3a-1DO"

new loadshape.arqCurvaNormCOM1 npts=24 interval=1.0
~ csvfile="arqCurvaNormCOM1DO"

new loadshape.arqCurvaNormIND1 npts=24 interval=1.0
~ csvfile="arqCurvaNormIND1DO"

new loadshape.arqCurvaNormRUR1 npts=24 interval=1.0
~ csvfile="arqCurvaNormRUR1DO"

new loadshape.arqCurvaNormRES1 npts=24 interval=1.0
~ csvfile="arqCurvaNormRES1DO"

new loadshape.arqCurvaNormA4-1 npts=24 interval=1.0
~ csvfile="arqCurvaNormA4-1DO"

new loadshape.arqCurvaNormCOM2 npts=24 interval=1.0
~ csvfile="arqCurvaNormCOM2DO"

new loadshape.arqCurvaNormIND2 npts=24 interval=1.0
~ csvfile="arqCurvaNormIND2DO"

new loadshape.arqCurvaNormRUR2 npts=24 interval=1.0
~ csvfile="arqCurvaNormRUR2DO"

new loadshape.arqCurvaNormRES2 npts=24 interval=1.0
~ csvfile="arqCurvaNormRES2DO"

new loadshape.arqCurvaNormA4-2 npts=24 interval=1.0
~ csvfile="arqCurvaNormA4-2DO"

new loadshape.arqCurvaNormCOM3 npts=24 interval=1.0
~ csvfile="arqCurvaNormCOM3DO"

new loadshape.arqCurvaNormIND3 npts=24 interval=1.0
~ csvfile="arqCurvaNormIND3DO"

new loadshape.arqCurvaNormRUR3 npts=24 interval=1.0
~ csvfile="arqCurvaNormRUR3DO"

new loadshape.arqCurvaNormRES3 npts=24 interval=1.0
~ csvfile="arqCurvaNormRES3DO"

new loadshape.arqCurvaNormA4-3 npts=24 interval=1.0
~ csvfile="arqCurvaNormA4-3DO"

new loadshape.arqCurvaNormCOM4 npts=24 interval=1.0
~ csvfile="arqCurvaNormCOM4DO"

new loadshape.arqCurvaNormIND4 npts=24 interval=1.0
~ csvfile="arqCurvaNormIND4DO"

new loadshape.arqCurvaNormRUR4 npts=24 interval=1.0
~ csvfile="arqCurvaNormRUR4DO"

new loadshape.arqCurvaNormRES4 npts=24 interval=1.0
~ csvfile="arqCurvaNormRES4DO"

new loadshape.arqCurvaNormA4-4 npts=24 interval=1.0
~ csvfile="arqCurvaNormA4-4DO"

new loadshape.arqCurvaNormRES5 npts=24 interval=1.0
~ csvfile="arqCurvaNormRES5DO"

new loadshape.arqCurvaNormA4-5 npts=24 interval=1.0
~ csvfile="arqCurvaNormA4-5DO"

new loadshape.arqCurvaNormRES6 npts=24 interval=1.0
~ csvfile="arqCurvaNormRES6DO"

new loadshape.arqCurvaNormA4-6 npts=24 interval=1.0
~ csvfile="arqCurvaNormA4-6DO"

new loadshape.arqCurvaNormA4-7 npts=24 interval=1.0
~ csvfile="arqCurvaNormA4-7DO"

new loadshape.arqCurvaNormMT1_1 npts=96 interval=0.25 mult=(0.798 0.787 0.816 0.846 0.775 0.772 0.813 0.805 0.79 0.79 0.79 0.816 0.783 0.757 0.764 0.775 0.779 0.764 0.749 0.76 0.768 0.753 0.742 0.734 0.779 0.783 0.734 0.742 0.734 0.764 0.768 0.723 0.749 0.753 0.727 0.727 0.742 0.745 0.798 0.79 0.757 0.787 0.813 0.831 0.798 0.772 0.824 0.813 0.798 0.775 0.772 0.813 0.772 0.742 0.801 0.805 0.82 0.82 0.82 0.82 0.816 0.809 0.858 0.858 0.839 0.813 0.846 0.854 0.794 0.839 0.865 0.839 0.846 0.891 0.891 0.839 0.865 0.835 0.85 0.824 0.839 0.85 0.824 0.809 0.846 0.839 0.816 0.824 0.843 0.854 0.809 0.779 0.835 0.816 0.757 0.775)
new loadshape.arqCurvaNormMT1_2 npts=96 interval=0.25 mult=(0.654 0.591 0.646 0.606 0.551 0.575 0.512 0.551 0.528 0.535 0.567 0.543 0.567 0.535 0.512 0.551 0.551 0.504 0.52 0.528 0.567 0.512 0.52 0.496 0.567 0.528 0.472 0.465 0.472 0.559 0.504 0.559 0.535 0.559 0.551 0.535 0.52 0.638 0.598 0.583 0.591 0.661 0.614 0.614 0.591 0.598 0.63 0.622 0.575 0.614 0.654 0.654 0.63 0.693 0.669 0.654 0.717 0.614 0.701 0.606 0.638 0.567 0.606 0.622 0.543 0.638 0.512 0.559 0.535 0.622 0.606 0.646 0.717 0.827 0.795 0.74 0.78 0.693 0.748 0.724 0.803 0.795 0.787 0.843 0.78 0.732 0.764 0.717 0.78 0.693 0.685 0.701 0.614 0.669 0.591 0.598)
new loadshape.arqCurvaNormMT1_3 npts=96 interval=0.25 mult=(0.632 0.686 0.686 0.673 0.632 0.667 0.629 0.651 0.638 0.654 0.626 0.607 0.613 0.579 0.61 0.585 0.604 0.579 0.597 0.544 0.579 0.541 0.572 0.538 0.475 0.494 0.503 0.579 0.572 0.607 0.635 0.657 0.632 0.692 0.711 0.717 0.723 0.733 0.717 0.717 0.739 0.72 0.748 0.742 0.736 0.764 0.745 0.739 0.748 0.736 0.739 0.733 0.73 0.745 0.774 0.72 0.701 0.692 0.67 0.682 0.673 0.67 0.632 0.613 0.601 0.623 0.642 0.629 0.597 0.626 0.632 0.629 0.642 0.654 0.717 0.695 0.72 0.682 0.673 0.645 0.676 0.635 0.651 0.607 0.629 0.623 0.613 0.585 0.597 0.566 0.607 0.591 0.619 0.601 0.619 0.566)
new loadshape.arqCurvaNormMT1_4 npts=96 interval=0.25 mult=(0.413 0.457 0.38 0.413 0.359 0.391 0.326 0.272 0.272 0.217 0.25 0.261 0.228 0.272 0.293 0.293 0.25 0.217 0.25 0.228 0.261 0.228 0.185 0.163 0.185 0.239 0.326 0.272 0.272 0.261 0.272 0.261 0.261 0.293 0.272 0.272 0.239 0.272 0.326 0.359 0.348 0.293 0.304 0.348 0.304 0.293 0.304 0.293 0.283 0.304 0.185 0.315 0.272 0.272 0.283 0.272 0.217 0.239 0.228 0.239 0.326 0.326 0.293 0.315 0.326 0.348 0.38 0.391 0.293 0.239 0.228 0.25 0.402 0.359 0.402 0.402 0.359 0.37 0.391 0.359 0.391 0.304 0.304 0.239 0.272 0.228 0.315 0.348 0.304 0.293 0.293 0.304 0.326 0.326 0.261 0.293)
new loadshape.arqCurvaNormMT1_5 npts=96 interval=0.25 mult=(0.329 0.329 0.314 0.329 0.329 0.329 0.329 0.329 0.329 0.314 0.329 0.314 0.329 0.314 0.329 0.314 0.314 0.314 0.314 0.314 0.314 0.314 0.4 0.529 0.514 0.529 0.529 0.529 0.514 0.514 0.5 0.514 0.514 0.514 0.514 0.514 0.514 0.514 0.514 0.5 0.529 0.514 0.514 0.529 0.529 0.529 0.514 0.529 0.529 0.529 0.529 0.529 0.514 0.529 0.514 0.514 0.514 0.514 0.514 0.529 0.529 0.514 0.529 0.529 0.529 0.529 0.514 0.514 0.529 0.529 0.443 0.329 0.329 0.329 0.329 0.314 0.3 0.3 0.3 0.3 0.3 0.3 0.3 0.3 0.3 0.3 0.3 0.286 0.271 0.271 0.286 0.271 0.286 0.271 0.271 0.286)
new loadshape.arqCurvaNormMT1_6 npts=96 interval=0.25 mult=(0.358 0.353 0.347 0.353 0.347 0.347 0.347 0.353 0.341 0.347 0.341 0.353 0.347 0.335 0.341 0.341 0.335 0.353 0.376 0.335 0.341 0.329 0.335 0.335 0.353 0.329 0.301 0.324 0.301 0.295 0.283 0.272 0.318 0.306 0.306 0.283 0.301 0.301 0.312 0.312 0.312 0.312 0.312 0.301 0.289 0.301 0.277 0.289 0.301 0.301 0.272 0.289 0.283 0.289 0.295 0.301 0.318 0.312 0.306 0.277 0.277 0.277 0.283 0.335 0.295 0.306 0.289 0.301 0.277 0.301 0.283 0.347 0.37 0.387 0.376 0.387 0.376 0.422 0.393 0.439 0.393 0.382 0.382 0.393 0.393 0.376 0.37 0.353 0.387 0.376 0.393 0.405 0.382 0.382 0.382 0.382)
new loadshape.arqCurvaNormMT1_7 npts=96 interval=0.25 mult=(0.206 0.202 0.198 0.181 0.189 0.169 0.173 0.181 0.181 0.181 0.177 0.185 0.193 0.193 0.189 0.173 0.173 0.169 0.169 0.169 0.173 0.169 0.177 0.218 0.267 0.185 0.185 0.148 0.148 0.148 0.202 0.251 0.243 0.222 0.235 0.23 0.198 0.198 0.23 0.259 0.267 0.284 0.313 0.276 0.263 0.292 0.263 0.259 0.255 0.276 0.272 0.263 0.23 0.23 0.251 0.251 0.296 0.305 0.288 0.28 0.259 0.259 0.259 0.255 0.243 0.321 0.267 0.267 0.333 0.251 0.255 0.272 0.267 0.284 0.28 0.292 0.292 0.235 0.198 0.202 0.193 0.193 0.189 0.202 0.21 0.214 0.206 0.193 0.193 0.181 0.181 0.181 0.177 0.181 0.193 0.189)
new loadshape.arqCurvaNormMT1_8 npts=96 interval=0.25 mult=(0.158 0.155 0.155 0.151 0.151 0.148 0.151 0.151 0.155 0.155 0.155 0.155 0.155 0.186 0.203 0.189 0.155 0.151 0.151 0.155 0.144 0.141 0.141 0.141 0.137 0.124 0.117 0.113 0.11 0.11 0.124 0.117 0.12 0.12 0.144 0.172 0.189 0.158 0.151 0.172 0.175 0.158 0.151 0.158 0.158 0.158 0.165 0.158 0.165 0.165 0.162 0.162 0.162 0.162 0.162 0.165 0.206 0.206 0.192 0.158 0.162 0.165 0.168 0.162 0.162 0.165 0.165 0.162 0.155 0.158 0.155 0.168 0.182 0.175 0.196 0.192 0.203 0.234 0.237 0.213 0.168 0.172 0.172 0.168 0.168 0.168 0.172 0.162 0.158 0.162 0.158 0.155 0.155 0.155 0.155 0.151)
new loadshape.arqCurvaNormMT1_9 npts=96 interval=0.25 mult=(0.069 0.069 0.066 0.066 0.069 0.069 0.069 0.069 0.069 0.069 0.077 0.071 0.071 0.066 0.063 0.069 0.069 0.069 0.066 0.066 0.069 0.063 0.063 0.054 0.043 0.046 0.054 0.057 0.066 0.06 0.054 0.051 0.054 0.051 0.06 0.06 0.063 0.063 0.06 0.063 0.06 0.063 0.074 0.069 0.071 0.074 0.077 0.08 0.08 0.074 0.077 0.077 0.063 0.063 0.063 0.06 0.063 0.057 0.06 0.051 0.063 0.066 0.066 0.071 0.069 0.066 0.06 0.063 0.063 0.069 0.054 0.063 0.071 0.071 0.074 0.069 0.066 0.071 0.077 0.071 0.08 0.086 0.083 0.071 0.069 0.069 0.069 0.06 0.069 0.063 0.066 0.063 0.066 0.069 0.066 0.063)
new loadshape.arqCurvaNormMT1_10 npts=96 interval=0.25 mult=(0.143 0.143 0.143 0.143 0.143 0.143 0.143 0.143 0.163 0.143 0.143 0.143 0.143 0.143 0.143 0.143 0.143 0.143 0.143 0.143 0.143 0.143 0.143 0.122 0.122 0.143 0.122 0.122 0.122 0.143 0.122 0.122 0.122 0.122 0.122 0.122 0.122 0.122 0.122 0.163 0.184 0.184 0.184 0.184 0.184 0.184 0.184 0.184 0.204 0.184 0.184 0.184 0.184 0.286 0.735 0.857 0.959 0.959 0.98 0.98 1 0.98 1 0.98 0.98 0.98 0.98 0.959 0.98 0.98 0.98 0.98 0.755 0.531 0.51 0.735 0.959 0.878 0.857 0.837 0.286 0.102 0.082 0.102 0.082 0.082 0.082 0.082 0.061 0.061 0.082 0.082 0.102 0.082 0.082 0.061)
new loadshape.arqCurvaNormMT1_11 npts=96 interval=0.25 mult=(0.066 0.058 0.058 0.058 0.058 0.066 0.058 0.058 0.058 0.058 0.066 0.058 0.058 0.058 0.058 0.058 0.058 0.058 0.074 0.058 0.058 0.05 0.05 0.05 0.066 0.066 0.058 0.058 0.058 0.058 0.058 0.066 0.058 0.05 0.05 0.058 0.05 0.05 0.05 0.066 0.058 0.058 0.05 0.05 0.058 0.05 0.05 0.058 0.041 0.05 0.041 0.033 0.033 0.041 0.041 0.041 0.041 0.05 0.05 0.041 0.033 0.041 0.041 0.058 0.058 0.083 0.074 0.05 0.033 0.033 0.041 0.05 0.05 0.074 0.091 0.083 0.083 0.083 0.083 0.083 0.083 0.091 0.083 0.083 0.083 0.091 0.083 0.083 0.083 0.083 0.091 0.083 0.083 0.083 0.083 0.091)
new loadshape.arqCurvaNormMT1_12 npts=96 interval=0.25 mult=(0.125 0.125 0.162 0.175 0.15 0.175 0.188 0.138 0.125 0.138 0.113 0.125 0.138 0.138 0.15 0.138 0.125 0.138 0.138 0.138 0.162 0.15 0.113 0.087 0.062 0.05 0.062 0.062 0.075 0.05 0.05 0.05 0.087 0.062 0.05 0.075 0.05 0.05 0.05 0.062 0.062 0.062 0.05 0.05 0.075 0.05 0.05 0.062 0.075 0.05 0.05 0.05 0.05 0.05 0.075 0.062 0.062 0.05 0.05 0.062 0.075 0.062 0.05 0.087 0.1 0.05 0.062 0.062 0.05 0.062 0.087 0.087 0.1 0.113 0.138 0.125 0.15 0.15 0.125 0.138 0.15 0.125 0.15 0.162 0.138 0.15 0.138 0.162 0.2 0.162 0.15 0.162 0.138 0.125 0.15 0.138)
new loadshape.arqCurvaNormMT1_13 npts=96 interval=0.25 mult=(0.156 0.133 0.133 0.133 0.133 0.133 0.133 0.133 0.133 0.133 0.133 0.133 0.133 0.133 0.133 0.156 0.133 0.133 0.133 0.133 0.133 0.156 0.133 0.133 0.111 0.111 0.089 0.089 0.133 0.133 0.133 0.133 0.111 0.111 0.111 0.111 0.111 0.111 0.111 0.111 0.111 0.111 0.111 0.111 0.089 0.089 0.089 0.089 0.089 0.089 0.111 0.133 0.111 0.111 0.111 0.111 0.111 0.089 0.111 0.111 0.111 0.111 0.111 0.133 0.133 0.089 0.111 0.111 0.111 0.133 0.111 0.156 0.156 0.156 0.133 0.156 0.156 0.156 0.133 0.156 0.156 0.156 0.133 0.156 0.156 0.156 0.133 0.156 0.133 0.133 0.133 0.133 0.133 0.133 0.133 0.133)
new loadshape.arqCurvaNormMT1_14 npts=96 interval=0.25 mult=(0.355 0.36 0.38 0.375 0.35 0.325 0.315 0.33 0.305 0.295 0.305 0.305 0.29 0.29 0.295 0.29 0.31 0.285 0.3 0.32 0.385 0.345 0.325 0.295 0.26 0.255 0.275 0.27 0.25 0.245 0.26 0.23 0.27 0.265 0.245 0.27 0.26 0.275 0.26 0.24 0.255 0.275 0.295 0.265 0.265 0.245 0.245 0.225 0.225 0.26 0.235 0.225 0.225 0.25 0.24 0.225 0.25 0.22 0.215 0.245 0.24 0.235 0.23 0.265 0.29 0.3 0.34 0.305 0.285 0.25 0.27 0.295 0.35 0.36 0.355 0.385 0.47 0.56 0.555 0.53 0.48 0.5 0.485 0.46 0.475 0.475 0.435 0.35 0.355 0.355 0.335 0.34 0.345 0.335 0.345 0.335)
new loadshape.arqCurvaNormMT1_15 npts=96 interval=0.25 mult=(0.214 0.201 0.201 0.201 0.195 0.195 0.188 0.208 0.195 0.188 0.188 0.195 0.195 0.188 0.195 0.195 0.188 0.195 0.188 0.188 0.201 0.214 0.234 0.234 0.195 0.182 0.162 0.169 0.175 0.175 0.182 0.195 0.195 0.195 0.201 0.195 0.208 0.227 0.214 0.214 0.208 0.214 0.214 0.214 0.221 0.208 0.208 0.214 0.208 0.214 0.221 0.208 0.214 0.208 0.208 0.208 0.208 0.195 0.208 0.195 0.208 0.195 0.188 0.195 0.201 0.208 0.201 0.201 0.195 0.195 0.201 0.195 0.214 0.227 0.221 0.214 0.227 0.221 0.214 0.214 0.221 0.208 0.201 0.195 0.208 0.201 0.195 0.208 0.201 0.201 0.195 0.188 0.201 0.201 0.201 0.195)
new loadshape.arqCurvaNormMT1_16 npts=96 interval=0.25 mult=(0.338 0.378 0.392 0.351 0.365 0.324 0.338 0.351 0.365 0.365 0.365 0.338 0.324 0.311 0.338 0.311 0.311 0.297 0.297 0.378 0.595 0.5 0.486 0.459 0.473 0.473 0.419 0.473 0.446 0.459 0.419 0.554 0.459 0.432 0.432 0.405 0.432 0.486 0.419 0.459 0.473 0.514 0.473 0.446 0.473 0.473 0.486 0.541 0.5 0.554 0.554 0.514 0.446 0.514 0.419 0.419 0.514 0.459 0.459 0.486 0.473 0.446 0.446 0.459 0.568 0.581 0.486 0.486 0.486 0.432 0.419 0.419 0.432 0.473 0.527 0.459 0.486 0.459 0.486 0.486 0.568 0.5 0.473 0.446 0.405 0.446 0.405 0.365 0.419 0.432 0.432 0.473 0.419 0.432 0.419 0.432)
new loadshape.arqCurvaNormMT1_17 npts=96 interval=0.25 mult=(0.906 0.906 0.906 0.912 0.918 0.918 0.929 0.929 0.929 0.918 0.906 0.918 0.912 0.918 0.912 0.912 0.912 0.912 0.918 0.918 0.947 0.971 0.959 0.947 0.988 1 0.982 0.976 0.976 0.929 0.765 0.624 0.512 0.512 0.518 0.5 0.5 0.482 0.447 0.4 0.453 0.482 0.476 0.435 0.253 0.247 0.229 0.218 0.212 0.206 0.2 0.2 0.2 0.206 0.212 0.218 0.212 0.206 0.2 0.188 0.188 0.188 0.188 0.188 0.182 0.182 0.194 0.2 0.2 0.212 0.312 0.324 0.318 0.306 0.306 0.306 0.306 0.306 0.306 0.329 0.524 0.535 0.688 0.771 0.735 0.741 0.865 0.859 0.876 0.906 0.894 0.876 0.882 0.888 0.888 0.876)
new loadshape.arqCurvaNormMT1_18 npts=96 interval=0.25 mult=(0.615 0.603 0.596 0.641 0.699 0.705 0.724 0.641 0.59 0.609 0.596 0.583 0.66 0.673 0.635 0.615 0.808 0.808 0.776 0.571 0.59 0.596 0.526 0.455 0.468 0.385 0.333 0.321 0.333 0.212 0.122 0.16 0.128 0.282 0.218 0.135 0.154 0.25 0.5 0.679 0.673 0.686 0.673 0.686 0.667 0.679 0.667 0.705 0.615 0.603 0.59 0.59 0.558 0.583 0.577 0.526 0.346 0.327 0.333 0.321 0.333 0.321 0.333 0.34 0.353 0.333 0.359 0.237 0.224 0.224 0.231 0.224 0.231 0.231 0.231 0.231 0.224 0.237 0.237 0.231 0.231 0.237 0.269 0.59 0.788 0.84 0.904 0.949 0.942 0.949 0.929 0.833 0.821 0.756 0.712 0.705)
new loadshape.arqCurvaNormMT1_19 npts=96 interval=0.25 mult=(0.661 0.696 0.562 0.652 0.679 0.491 0.607 0.536 0.491 0.679 0.687 0.589 0.741 0.687 0.562 0.67 0.571 0.509 0.643 0.518 0.5 0.643 0.634 0.536 0.866 0.839 0.741 0.848 0.705 0.67 0.804 0.634 0.723 0.938 0.982 0.795 0.938 0.777 0.696 0.643 0.759 0.777 0.75 0.812 0.75 0.795 0.848 0.795 0.795 0.857 0.875 0.741 0.714 0.92 0.741 0.714 0.795 0.598 0.679 0.75 0.589 0.643 0.705 0.625 0.562 0.777 0.357 0.304 0.286 0.259 0.259 0.25 0.277 0.304 0.286 0.375 0.348 0.339 0.304 0.304 0.277 0.5 0.634 0.598 0.589 0.75 0.491 0.634 0.652 0.562 0.679 0.571 0.58 0.679 0.732 0.518)
new loadshape.arqCurvaNormMT1_20 npts=96 interval=0.25 mult=(0.866 0.851 0.851 0.851 0.866 0.866 0.866 0.851 0.881 0.866 0.851 0.851 0.851 0.836 0.821 0.836 0.851 0.821 0.821 0.836 0.821 0.836 0.731 0.567 0.418 0.418 0.418 0.388 0.119 0.09 0.075 0.09 0.075 0.075 0.09 0.104 0.075 0.075 0.104 0.09 0.104 0.09 0.09 0.104 0.09 0.104 0.09 0.104 0.09 0.09 0.104 0.119 0.09 0.09 0.075 0.075 0.09 0.075 0.075 0.09 0.104 0.09 0.075 0.134 0.134 0.104 0.149 0.254 0.254 0.239 0.328 0.567 0.851 0.97 0.94 0.851 0.806 0.836 0.851 0.791 0.761 0.791 0.791 0.746 0.821 0.896 0.881 0.896 0.881 0.896 0.881 0.881 0.896 0.881 0.881 0.866)
new loadshape.arqCurvaNormMT1_21 npts=96 interval=0.25 mult=(0.835 0.825 0.835 0.854 0.854 0.825 0.845 0.864 0.845 0.825 0.816 0.825 0.816 0.796 0.806 0.806 0.816 0.816 0.796 0.816 0.825 0.845 0.816 0.621 0.583 0.388 0.379 0.34 0.388 0.34 0.34 0.379 0.359 0.35 0.35 0.33 0.369 0.417 0.417 0.398 0.369 0.398 0.379 0.388 0.408 0.388 0.408 0.427 0.417 0.427 0.408 0.417 0.417 0.437 0.427 0.417 0.447 0.447 0.447 0.485 0.437 0.437 0.466 0.447 0.408 0.417 0.456 0.476 0.466 0.485 0.485 0.544 0.816 0.942 0.951 0.932 0.981 0.922 0.903 0.874 0.854 0.893 0.893 0.864 0.883 0.883 0.913 0.864 0.845 0.854 0.864 0.854 0.864 0.845 0.854 0.845)
new loadshape.arqCurvaNormMT1_22 npts=96 interval=0.25 mult=(0.906 0.906 0.896 0.885 0.875 0.885 0.875 0.865 0.865 0.875 0.885 0.896 0.885 0.875 0.865 0.854 0.854 0.854 0.844 0.844 0.854 0.865 0.854 0.813 0.594 0.25 0.25 0.229 0.26 0.25 0.25 0.24 0.198 0.24 0.25 0.24 0.26 0.271 0.271 0.271 0.313 0.313 0.281 0.302 0.302 0.323 0.344 0.344 0.344 0.354 0.365 0.365 0.396 0.49 0.469 0.479 0.458 0.438 0.438 0.479 0.479 0.458 0.479 0.458 0.469 0.438 0.438 0.427 0.448 0.448 0.438 0.427 0.531 0.646 0.771 0.844 0.938 1 0.99 0.969 0.969 0.958 0.938 0.969 0.969 0.948 0.927 0.927 0.917 0.948 0.927 0.938 0.948 0.938 0.927 0.906)
new loadshape.arqCurvaNormMT1_23 npts=96 interval=0.25 mult=(0.854 0.902 0.854 0.854 0.829 0.829 0.78 0.829 0.829 0.829 0.829 0.805 0.829 0.805 0.805 0.829 0.78 0.854 0.829 0.829 0.805 0.732 0.707 0.61 0.439 0.39 0.39 0.39 0.39 0.39 0.415 0.439 0.39 0.439 0.439 0.463 0.366 0.366 0.463 0.439 0.39 0.415 0.366 0.366 0.366 0.366 0.366 0.366 0.366 0.366 0.366 0.366 0.366 0.366 0.463 0.39 0.341 0.341 0.341 0.39 0.488 0.415 0.366 0.366 0.317 0.317 0.341 0.317 0.341 0.341 0.341 0.366 0.659 0.756 0.732 0.756 0.756 0.78 0.732 0.707 0.732 0.732 0.732 0.756 0.756 0.756 0.756 0.78 0.756 0.756 0.756 0.732 0.756 0.78 0.78 0.756)
new loadshape.arqCurvaNormMT1_24 npts=96 interval=0.25 mult=(0.642 0.698 0.698 0.679 0.698 0.698 0.491 0.585 0.642 0.698 0.679 0.642 0.642 0.396 0.415 0.585 0.774 0.774 0.792 0.755 0.755 0.623 0.698 0.811 0.642 0.585 0.698 0.642 0.585 0.491 0.491 0.547 0.547 0.698 0.566 0.604 0.623 0.377 0.34 0.491 0.528 0.509 0.585 0.585 0.604 0.321 0.226 0.377 0.453 0.491 0.547 0.434 0.453 0.245 0.189 0.245 0.472 0.472 0.528 0.679 0.585 0.755 0.434 0.377 0.453 0.604 0.755 0.604 0.604 0.604 0.604 0.491 0.736 0.887 0.887 0.849 0.792 0.83 0.755 0.547 0.755 0.887 0.925 0.811 0.792 0.642 0.509 0.528 0.66 0.774 0.679 0.66 0.698 0.604 0.396 0.415)
new loadshape.arqCurvaNormMT1_25 npts=96 interval=0.25 mult=(0.67 0.692 0.67 0.681 0.648 0.648 0.637 0.637 0.626 0.648 0.681 0.692 0.659 0.648 0.659 0.648 0.626 0.615 0.681 0.692 0.703 0.714 0.736 0.714 0.648 0.571 0.615 0.714 0.714 0.791 0.791 0.747 0.681 0.604 0.67 0.67 0.659 0.681 0.637 0.659 0.637 0.604 0.615 0.659 0.659 0.615 0.626 0.615 0.593 0.549 0.538 0.505 0.549 0.56 0.571 0.549 0.549 0.593 0.571 0.56 0.56 0.604 0.582 0.56 0.571 0.615 0.571 0.56 0.56 0.637 0.615 0.648 0.703 0.736 0.703 0.692 0.703 0.714 0.725 0.736 0.692 0.681 0.714 0.714 0.703 0.681 0.681 0.692 0.692 0.67 0.703 0.725 0.703 0.648 0.604 0.604)
new loadshape.arqCurvaNormMT1_26 npts=96 interval=0.25 mult=(0.48 0.449 0.472 0.465 0.457 0.465 0.472 0.48 0.48 0.472 0.449 0.417 0.409 0.465 0.425 0.425 0.433 0.457 0.465 0.465 0.449 0.449 0.465 0.425 0.386 0.417 0.402 0.394 0.386 0.386 0.402 0.441 0.409 0.425 0.457 0.457 0.449 0.48 0.441 0.402 0.441 0.567 0.535 0.535 0.543 0.409 0.409 0.37 0.386 0.465 0.433 0.433 0.433 0.465 0.425 0.433 0.433 0.425 0.457 0.496 0.488 0.496 0.504 0.472 0.496 0.425 0.449 0.504 0.48 0.48 0.528 0.535 0.496 0.512 0.52 0.504 0.504 0.512 0.496 0.504 0.488 0.496 0.488 0.488 0.465 0.52 0.472 0.48 0.488 0.48 0.488 0.488 0.472 0.441 0.433 0.449)
new loadshape.arqCurvaNormMT2_1 npts=96 interval=0.25 mult=(0.802 0.869 0.817 0.813 0.806 0.825 0.813 0.839 0.815 0.796 0.782 0.792 0.78 0.821 0.806 0.823 0.806 0.798 0.831 0.7 0.704 0.669 0.712 0.704 0.815 0.766 0.762 0.742 0.808 0.831 0.794 0.81 0.78 0.823 0.813 0.851 0.835 0.849 0.835 0.825 0.853 0.786 0.804 0.808 0.865 0.813 0.865 0.847 0.885 0.827 0.899 0.813 0.853 0.821 0.849 0.851 0.897 0.819 0.883 0.831 0.853 0.827 0.841 0.81 0.861 0.835 0.825 0.784 0.815 0.8 0.889 0.823 0.855 0.849 0.875 0.855 0.891 0.859 0.819 0.845 0.877 0.837 0.815 0.827 0.829 0.849 0.865 0.875 0.911 0.871 0.889 0.835 0.863 0.788 0.839 0.883)
new loadshape.arqCurvaNormMT2_2 npts=96 interval=0.25 mult=(0.583 0.594 0.595 0.59 0.579 0.574 0.579 0.583 0.582 0.581 0.564 0.56 0.57 0.556 0.56 0.573 0.549 0.551 0.56 0.558 0.554 0.552 0.555 0.571 0.608 0.611 0.621 0.635 0.665 0.678 0.691 0.712 0.724 0.716 0.76 0.761 0.752 0.756 0.783 0.801 0.783 0.777 0.796 0.787 0.779 0.78 0.779 0.765 0.772 0.764 0.768 0.784 0.778 0.775 0.772 0.772 0.75 0.758 0.756 0.731 0.715 0.711 0.694 0.689 0.683 0.671 0.67 0.689 0.679 0.666 0.658 0.649 0.664 0.664 0.663 0.671 0.648 0.652 0.648 0.646 0.631 0.624 0.617 0.631 0.627 0.605 0.611 0.614 0.61 0.605 0.593 0.587 0.582 0.587 0.578 0.571)
new loadshape.arqCurvaNormMT2_3 npts=96 interval=0.25 mult=(0.362 0.33 0.334 0.338 0.332 0.338 0.349 0.362 0.362 0.354 0.356 0.352 0.338 0.323 0.334 0.321 0.325 0.31 0.308 0.31 0.312 0.314 0.321 0.295 0.288 0.312 0.325 0.336 0.325 0.314 0.308 0.317 0.352 0.373 0.367 0.371 0.415 0.415 0.419 0.456 0.491 0.467 0.463 0.493 0.546 0.552 0.548 0.524 0.5 0.498 0.498 0.489 0.472 0.5 0.498 0.491 0.469 0.485 0.461 0.465 0.472 0.45 0.445 0.459 0.434 0.426 0.421 0.428 0.417 0.376 0.369 0.4 0.43 0.439 0.43 0.406 0.391 0.41 0.426 0.397 0.373 0.376 0.373 0.362 0.384 0.386 0.358 0.362 0.347 0.338 0.341 0.343 0.341 0.341 0.336 0.341)
new loadshape.arqCurvaNormMT2_4 npts=96 interval=0.25 mult=(0.458 0.453 0.453 0.264 0.04 0.04 0.045 0.045 0.04 0.045 0.04 0.045 0.045 0.05 0.055 0.065 0.065 0.229 0.463 0.632 0.632 0.667 0.711 0.602 0.244 0.249 0.289 0.682 0.677 0.667 0.662 0.657 0.657 0.383 0.239 0.239 0.284 0.313 0.343 0.741 0.721 0.741 0.736 0.697 0.662 0.682 0.697 0.662 0.642 0.657 0.687 0.692 0.697 0.701 0.711 0.692 0.662 0.662 0.682 0.672 0.652 0.637 0.692 0.701 0.697 0.672 0.672 0.667 0.672 0.657 0.672 0.701 0.662 0.637 0.632 0.692 0.672 0.667 0.667 0.662 0.662 0.637 0.627 0.438 0.254 0.244 0.214 0.632 0.667 0.657 0.622 0.667 0.458 0.468 0.274 0.05)
new loadshape.arqCurvaNormMT2_5 npts=96 interval=0.25 mult=(0.165 0.163 0.163 0.162 0.165 0.163 0.162 0.164 0.169 0.169 0.167 0.169 0.167 0.171 0.167 0.168 0.167 0.168 0.163 0.166 0.164 0.168 0.161 0.154 0.136 0.134 0.135 0.137 0.134 0.135 0.136 0.139 0.133 0.137 0.138 0.139 0.14 0.135 0.146 0.147 0.149 0.149 0.147 0.146 0.152 0.15 0.148 0.149 0.157 0.157 0.158 0.158 0.159 0.161 0.159 0.157 0.162 0.211 0.19 0.175 0.18 0.186 0.186 0.179 0.186 0.196 0.187 0.186 0.188 0.19 0.196 0.216 0.213 0.215 0.216 0.23 0.224 0.219 0.218 0.235 0.214 0.228 0.211 0.218 0.218 0.22 0.229 0.212 0.23 0.216 0.227 0.22 0.231 0.248 0.22 0.248)
new loadshape.arqCurvaNormMT2_6 npts=96 interval=0.25 mult=(0.044 0.051 0.057 0.063 0.057 0.07 0.057 0.044 0.044 0.038 0.051 0.051 0.051 0.051 0.051 0.051 0.051 0.051 0.044 0.057 0.057 0.057 0.057 0.057 0.044 0.057 0.057 0.152 0.297 0.291 0.297 0.291 0.291 0.285 0.285 0.304 0.31 0.304 0.304 0.304 0.285 0.285 0.291 0.291 0.285 0.285 0.285 0.285 0.285 0.297 0.31 0.304 0.139 0.057 0.044 0.038 0.038 0.038 0.038 0.12 0.278 0.278 0.278 0.278 0.278 0.291 0.297 0.304 0.297 0.304 0.297 0.291 0.285 0.285 0.146 0.057 0.051 0.051 0.051 0.051 0.051 0.051 0.07 0.07 0.07 0.07 0.063 0.051 0.063 0.051 0.051 0.057 0.057 0.051 0.051 0.051)
new loadshape.arqCurvaNormMT2_7 npts=96 interval=0.25 mult=(0.133 0.13 0.13 0.133 0.133 0.133 0.133 0.13 0.13 0.133 0.118 0.09 0.093 0.127 0.124 0.09 0.09 0.121 0.118 0.09 0.09 0.105 0.127 0.093 0.093 0.09 0.09 0.13 0.127 0.09 0.102 0.13 0.13 0.13 0.136 0.136 0.139 0.136 0.136 0.133 0.139 0.136 0.139 0.139 0.139 0.158 0.368 0.43 0.529 0.582 0.659 0.703 0.706 0.703 0.712 0.786 0.824 0.864 0.867 0.861 0.858 0.938 0.994 1 0.997 0.988 0.988 0.981 0.981 0.969 0.954 0.944 0.932 0.898 0.879 0.892 0.882 0.827 0.693 0.554 0.471 0.334 0.294 0.288 0.263 0.229 0.189 0.077 0.071 0.068 0.068 0.068 0.068 0.071 0.068 0.068)
new loadshape.arqCurvaNormMT2_8 npts=96 interval=0.25 mult=(0.07 0.153 0.148 0.105 0.07 0.07 0.114 0.179 0.1 0.07 0.07 0.122 0.14 0.175 0.07 0.07 0.07 0.118 0.179 0.179 0.166 0.07 0.07 0.07 0.096 0.192 0.245 0.349 0.345 0.358 0.454 0.454 0.454 0.415 0.349 0.389 0.463 0.467 0.472 0.476 0.493 0.476 0.472 0.489 0.498 0.467 0.467 0.463 0.485 0.476 0.166 0.118 0.109 0.201 0.201 0.197 0.197 0.402 0.459 0.41 0.345 0.349 0.367 0.454 0.389 0.349 0.354 0.148 0.218 0.122 0.1 0.109 0.1 0.175 0.17 0.092 0.131 0.092 0.14 0.201 0.1 0.096 0.096 0.087 0.183 0.201 0.192 0.092 0.079 0.074 0.07 0.175 0.127 0.074 0.07 0.074)
new loadshape.arqCurvaNormMT2_9 npts=96 interval=0.25 mult=(0.089 0.082 0.089 0.082 0.086 0.086 0.082 0.086 0.082 0.082 0.086 0.082 0.064 0.057 0.057 0.061 0.057 0.061 0.061 0.054 0.057 0.061 0.057 0.054 0.036 0.029 0.025 0.025 0.054 0.054 0.05 0.057 0.129 0.15 0.161 0.218 0.211 0.154 0.171 0.161 0.154 0.164 0.164 0.179 0.164 0.168 0.168 0.161 0.179 0.218 0.121 0.079 0.079 0.086 0.104 0.125 0.118 0.104 0.1 0.096 0.1 0.1 0.1 0.114 0.132 0.121 0.118 0.096 0.114 0.104 0.096 0.082 0.1 0.107 0.104 0.111 0.107 0.114 0.111 0.104 0.114 0.104 0.107 0.107 0.125 0.121 0.111 0.107 0.104 0.111 0.104 0.104 0.107 0.1 0.107 0.1)
new loadshape.arqCurvaNormMT2_10 npts=96 interval=0.25 mult=(0.037 0.035 0.037 0.038 0.038 0.038 0.037 0.036 0.035 0.036 0.036 0.035 0.036 0.036 0.036 0.034 0.036 0.035 0.036 0.056 0.061 0.067 0.059 0.061 0.056 0.05 0.048 0.044 0.049 0.052 0.052 0.052 0.071 0.086 0.087 0.087 0.089 0.087 0.083 0.068 0.05 0.048 0.048 0.049 0.051 0.054 0.055 0.029 0.027 0.025 0.023 0.022 0.022 0.025 0.023 0.024 0.025 0.023 0.023 0.022 0.022 0.023 0.022 0.02 0.021 0.025 0.023 0.025 0.025 0.026 0.025 0.029 0.035 0.041 0.043 0.041 0.041 0.041 0.041 0.043 0.043 0.046 0.047 0.044 0.044 0.045 0.044 0.043 0.043 0.041 0.04 0.042 0.043 0.04 0.04 0.04)
new loadshape.arqCurvaNormMT2_11 npts=96 interval=0.25 mult=(0.057 0.055 0.056 0.056 0.059 0.057 0.062 0.06 0.055 0.079 0.132 0.138 0.134 0.135 0.135 0.135 0.141 0.138 0.149 0.178 0.18 0.18 0.178 0.178 0.174 0.172 0.17 0.174 0.177 0.178 0.177 0.177 0.171 0.174 0.172 0.174 0.177 0.177 0.177 0.175 0.168 0.165 0.165 0.168 0.17 0.17 0.171 0.182 0.181 0.184 0.182 0.144 0.105 0.098 0.151 0.182 0.178 0.141 0.106 0.106 0.102 0.105 0.101 0.102 0.101 0.049 0.033 0.029 0.029 0.033 0.032 0.032 0.032 0.03 0.029 0.034 0.032 0.033 0.033 0.033 0.034 0.036 0.043 0.046 0.049 0.05 0.049 0.045 0.049 0.066 0.069 0.072 0.069 0.066 0.066 0.063)
new loadshape.arqCurvaNormMT2_12 npts=96 interval=0.25 mult=(0.21 0.216 0.193 0.199 0.182 0.182 0.199 0.188 0.193 0.199 0.193 0.182 0.182 0.188 0.17 0.176 0.153 0.278 0.267 0.341 0.239 0.278 0.364 0.313 0.432 0.477 0.528 0.46 0.33 0.392 0.33 0.432 0.364 0.398 0.42 0.409 0.381 0.347 0.386 0.375 0.301 0.29 0.284 0.335 0.33 0.381 0.273 0.25 0.386 0.239 0.216 0.233 0.244 0.233 0.273 0.29 0.295 0.324 0.295 0.324 0.273 0.256 0.256 0.278 0.273 0.29 0.313 0.29 0.29 0.278 0.273 0.313 0.295 0.29 0.307 0.244 0.284 0.295 0.227 0.227 0.227 0.199 0.227 0.227 0.216 0.284 0.318 0.29 0.284 0.301 0.301 0.295 0.295 0.29 0.284 0.284)
new loadshape.arqCurvaNormMT2_13 npts=96 interval=0.25 mult=(0.528 0.546 0.588 0.57 0.541 0.591 0.575 0.53 0.562 0.543 0.543 0.541 0.525 0.562 0.517 0.543 0.517 0.541 0.509 0.52 0.514 0.488 0.475 0.354 0.36 0.249 0.278 0.234 0.286 0.247 0.283 0.244 0.291 0.328 0.283 0.299 0.294 0.299 0.346 0.315 0.323 0.302 0.297 0.325 0.32 0.344 0.333 0.312 0.299 0.315 0.299 0.304 0.325 0.318 0.307 0.323 0.31 0.304 0.302 0.312 0.294 0.339 0.304 0.307 0.346 0.325 0.341 0.365 0.346 0.375 0.409 0.472 0.588 0.614 0.635 0.656 0.651 0.625 0.643 0.638 0.648 0.627 0.635 0.619 0.617 0.617 0.604 0.619 0.596 0.596 0.585 0.593 0.591 0.549 0.562 0.546)
new loadshape.arqCurvaNormMT2_14 npts=96 interval=0.25 mult=(0.124 0.116 0.116 0.12 0.116 0.116 0.12 0.116 0.111 0.12 0.116 0.116 0.111 0.111 0.116 0.116 0.111 0.116 0.116 0.111 0.107 0.107 0.098 0.084 0.08 0.213 0.053 0.058 0.053 0.067 0.258 0.053 0.058 0.053 0.058 0.058 0.058 0.058 0.196 0.16 0.098 0.178 0.058 0.227 0.067 0.067 0.204 0.182 0.267 0.458 0.453 0.676 0.516 0.449 0.449 0.409 0.582 0.489 0.453 0.449 0.449 0.449 0.542 0.316 0.4 0.44 0.476 0.364 0.356 0.369 0.369 0.667 0.387 0.404 0.418 0.387 0.387 0.511 0.316 0.276 0.364 0.387 0.298 0.338 0.156 0.182 0.307 0.156 0.151 0.147 0.093 0.098 0.093 0.089 0.089 0.093)
new loadshape.arqCurvaNormMT2_15 npts=96 interval=0.25 mult=(0.039 0.039 0.041 0.039 0.037 0.037 0.039 0.039 0.039 0.039 0.039 0.037 0.037 0.037 0.039 0.034 0.039 0.039 0.037 0.039 0.039 0.034 0.034 0.037 0.027 0.023 0.023 0.016 0.011 0.018 0.016 0.124 0.098 0.05 0.055 0.048 0.071 0.195 0.206 0.197 0.146 0.128 0.114 0.069 0.192 0.165 0.172 0.162 0.098 0.039 0.034 0.034 0.03 0.032 0.183 0.185 0.169 0.133 0.126 0.165 0.188 0.158 0.039 0.037 0.037 0.039 0.037 0.039 0.037 0.027 0.027 0.025 0.034 0.039 0.041 0.037 0.037 0.041 0.043 0.053 0.059 0.055 0.053 0.055 0.05 0.05 0.055 0.053 0.053 0.05 0.05 0.053 0.048 0.048 0.05 0.05)
new loadshape.arqCurvaNormMT2_16 npts=96 interval=0.25 mult=(0.964 0.968 0.975 0.982 0.971 0.964 0.964 0.964 0.991 0.982 0.968 0.971 0.957 0.975 0.973 0.948 0.952 0.955 0.962 0.968 0.973 0.975 0.952 0.966 0.968 0.977 0.968 0.971 0.957 0.962 0.957 0.964 0.959 0.941 0.776 0.631 0.64 0.952 0.962 0.955 0.948 0.943 0.948 0.946 0.946 0.939 0.93 0.93 0.93 0.916 0.928 0.914 0.6 0.595 0.615 0.615 0.611 0.609 0.611 0.606 0.609 0.609 0.613 0.6 0.59 0.586 0.59 0.597 0.604 0.604 0.602 0.6 0.606 0.636 0.64 0.645 0.64 0.64 0.638 0.633 0.633 0.629 0.638 0.652 0.649 0.919 0.941 0.934 0.946 0.955 0.962 0.959 0.955 0.957 0.952 0.955)
new loadshape.arqCurvaNormMT2_17 npts=96 interval=0.25 mult=(0.42 0.466 0.454 0.443 0.37 0.332 0.344 0.359 0.454 0.489 0.45 0.462 0.492 0.546 0.55 0.466 0.466 0.412 0.408 0.412 0.313 0.321 0.313 0.29 0.34 0.275 0.378 0.427 0.469 0.584 0.485 0.508 0.496 0.492 0.557 0.58 0.561 0.462 0.542 0.458 0.527 0.496 0.534 0.5 0.515 0.546 0.477 0.534 0.538 0.645 0.649 0.504 0.538 0.443 0.573 0.508 0.439 0.553 0.546 0.477 0.496 0.462 0.447 0.431 0.405 0.466 0.416 0.439 0.279 0.302 0.263 0.29 0.298 0.332 0.34 0.317 0.317 0.302 0.359 0.305 0.378 0.45 0.431 0.443 0.416 0.5 0.603 0.511 0.534 0.508 0.534 0.523 0.565 0.618 0.599 0.565)
new loadshape.arqCurvaNormMT2_18 npts=96 interval=0.25 mult=(0.212 0.192 0.212 0.205 0.205 0.205 0.205 0.205 0.205 0.199 0.192 0.205 0.205 0.205 0.205 0.205 0.205 0.205 0.186 0.199 0.205 0.205 0.199 0.199 0.199 0.199 0.199 0.186 0.237 0.256 0.263 0.224 0.115 0.122 0.09 0.115 0.103 0.109 0.115 0.109 0.109 0.103 0.058 0.058 0.051 0.064 0.071 0.064 0.064 0.071 0.109 0.096 0.135 0.109 0.058 0.071 0.103 0.103 0.064 0.058 0.058 0.045 0.045 0.058 0.058 0.058 0.058 0.103 0.122 0.109 0.058 0.077 0.077 0.09 0.103 0.083 0.064 0.103 0.109 0.103 0.122 0.109 0.115 0.083 0.122 0.122 0.077 0.122 0.186 0.179 0.167 0.186 0.218 0.205 0.192 0.218)